* SPICE3 file created from test.ext - technology: sky130A

.subckt test A Y gnd Vdd
X0 Y A gnd gnd sky130_fd_pr__nfet_01v8 ad=0.55 pd=3.1 as=0.55 ps=3.1 w=1 l=0.15
X1 Y A Vdd Vdd sky130_fd_pr__pfet_01v8 ad=0.55 pd=3.1 as=0.55 ps=3.1 w=1 l=0.15
.ends

