* SPICE3 file created from toplevel.ext - technology: sky130A

.subckt sky130_fd_pr__cap_mim_m3_1_LJ5JLG m3_n3186_n3040# c1_n3146_n3000# VSUBS
X0 c1_n3146_n3000# m3_n3186_n3040# sky130_fd_pr__cap_mim_m3_1 l=30 w=30
C0 m3_n3186_n3040# c1_n3146_n3000# 78.9944f
C1 c1_n3146_n3000# VSUBS 3.12051f
C2 m3_n3186_n3040# VSUBS 18.2382f
.ends

.subckt sky130_fd_pr__pfet_01v8_TM5SY6 w_n246_n269# a_n108_n50# a_50_n50# a_n50_n147#
+ VSUBS
X0 a_50_n50# a_n50_n147# a_n108_n50# w_n246_n269# sky130_fd_pr__pfet_01v8 ad=0.145 pd=1.58 as=0.145 ps=1.58 w=0.5 l=0.5
.ends

.subckt sky130_fd_pr__nfet_01v8_SMGLWN a_n50_n138# a_n210_n224# a_n108_n50# a_50_n50#
X0 a_50_n50# a_n50_n138# a_n108_n50# a_n210_n224# sky130_fd_pr__nfet_01v8 ad=0.145 pd=1.58 as=0.145 ps=1.58 w=0.5 l=0.5
.ends

.subckt sky130_fd_pr__pfet_01v8_lvt_PH9SS5 a_n50_n297# a_50_n200# a_n108_n200# w_n246_n419#
+ VSUBS
X0 a_50_n200# a_n50_n297# a_n108_n200# w_n246_n419# sky130_fd_pr__pfet_01v8_lvt ad=0.58 pd=4.58 as=0.58 ps=4.58 w=2 l=0.5
.ends

.subckt sky130_fd_pr__pfet_01v8_BH9SS5 w_n246_n319# a_n50_n197# a_50_n100# a_n108_n100#
+ VSUBS
X0 a_50_n100# a_n50_n197# a_n108_n100# w_n246_n319# sky130_fd_pr__pfet_01v8 ad=0.29 pd=2.58 as=0.29 ps=2.58 w=1 l=0.5
.ends

.subckt sky130_fd_pr__nfet_01v8_J7MSU8 a_n129_n130# a_63_n130# a_n81_n42# a_15_n42#
+ a_n173_n42# a_n33_64# a_111_n42# VSUBS
X0 a_15_n42# a_n33_64# a_n81_n42# VSUBS sky130_fd_pr__nfet_01v8 ad=0.0693 pd=0.75 as=0.0693 ps=0.75 w=0.42 l=0.15
X1 a_111_n42# a_63_n130# a_15_n42# VSUBS sky130_fd_pr__nfet_01v8 ad=0.1302 pd=1.46 as=0.0693 ps=0.75 w=0.42 l=0.15
X2 a_n81_n42# a_n129_n130# a_n173_n42# VSUBS sky130_fd_pr__nfet_01v8 ad=0.0693 pd=0.75 as=0.1302 ps=1.46 w=0.42 l=0.15
.ends

.subckt sky130_fd_pr__nfet_01v8_3374R3 a_50_n200# a_n108_n200# a_n50_n288# a_n210_n374#
X0 a_50_n200# a_n50_n288# a_n108_n200# a_n210_n374# sky130_fd_pr__nfet_01v8 ad=0.58 pd=4.58 as=0.58 ps=4.58 w=2 l=0.5
.ends

.subckt sky130_fd_pr__nfet_01v8_GWAZJ9 a_15_n130# a_63_n42# a_n177_n130# a_255_n42#
+ a_n129_n42# a_111_64# a_n321_n42# a_159_n42# a_n81_64# a_n273_64# a_351_n42# a_207_n130#
+ a_303_64# a_n33_n42# a_n369_n130# a_n225_n42# a_n413_n42# VSUBS
X0 a_63_n42# a_15_n130# a_n33_n42# VSUBS sky130_fd_pr__nfet_01v8 ad=0.0693 pd=0.75 as=0.0693 ps=0.75 w=0.42 l=0.15
X1 a_n33_n42# a_n81_64# a_n129_n42# VSUBS sky130_fd_pr__nfet_01v8 ad=0.0693 pd=0.75 as=0.0693 ps=0.75 w=0.42 l=0.15
X2 a_351_n42# a_303_64# a_255_n42# VSUBS sky130_fd_pr__nfet_01v8 ad=0.1302 pd=1.46 as=0.0693 ps=0.75 w=0.42 l=0.15
X3 a_159_n42# a_111_64# a_63_n42# VSUBS sky130_fd_pr__nfet_01v8 ad=0.0693 pd=0.75 as=0.0693 ps=0.75 w=0.42 l=0.15
X4 a_255_n42# a_207_n130# a_159_n42# VSUBS sky130_fd_pr__nfet_01v8 ad=0.0693 pd=0.75 as=0.0693 ps=0.75 w=0.42 l=0.15
X5 a_n321_n42# a_n369_n130# a_n413_n42# VSUBS sky130_fd_pr__nfet_01v8 ad=0.0693 pd=0.75 as=0.1302 ps=1.46 w=0.42 l=0.15
X6 a_n225_n42# a_n273_64# a_n321_n42# VSUBS sky130_fd_pr__nfet_01v8 ad=0.0693 pd=0.75 as=0.0693 ps=0.75 w=0.42 l=0.15
X7 a_n129_n42# a_n177_n130# a_n225_n42# VSUBS sky130_fd_pr__nfet_01v8 ad=0.0693 pd=0.75 as=0.0693 ps=0.75 w=0.42 l=0.15
.ends

.subckt sky130_fd_pr__nfet_01v8_GWFSUW a_15_n130# a_63_n42# a_n177_n130# a_255_n42#
+ a_n129_n42# a_111_64# a_n321_n42# a_159_n42# a_n81_64# a_n273_64# a_351_n42# a_207_n130#
+ a_303_64# a_n33_n42# a_n369_n130# a_n225_n42# a_n413_n42# VSUBS
X0 a_63_n42# a_15_n130# a_n33_n42# VSUBS sky130_fd_pr__nfet_01v8 ad=0.0693 pd=0.75 as=0.0693 ps=0.75 w=0.42 l=0.15
X1 a_n33_n42# a_n81_64# a_n129_n42# VSUBS sky130_fd_pr__nfet_01v8 ad=0.0693 pd=0.75 as=0.0693 ps=0.75 w=0.42 l=0.15
X2 a_351_n42# a_303_64# a_255_n42# VSUBS sky130_fd_pr__nfet_01v8 ad=0.1302 pd=1.46 as=0.0693 ps=0.75 w=0.42 l=0.15
X3 a_159_n42# a_111_64# a_63_n42# VSUBS sky130_fd_pr__nfet_01v8 ad=0.0693 pd=0.75 as=0.0693 ps=0.75 w=0.42 l=0.15
X4 a_255_n42# a_207_n130# a_159_n42# VSUBS sky130_fd_pr__nfet_01v8 ad=0.0693 pd=0.75 as=0.0693 ps=0.75 w=0.42 l=0.15
X5 a_n321_n42# a_n369_n130# a_n413_n42# VSUBS sky130_fd_pr__nfet_01v8 ad=0.0693 pd=0.75 as=0.1302 ps=1.46 w=0.42 l=0.15
X6 a_n225_n42# a_n273_64# a_n321_n42# VSUBS sky130_fd_pr__nfet_01v8 ad=0.0693 pd=0.75 as=0.0693 ps=0.75 w=0.42 l=0.15
X7 a_n129_n42# a_n177_n130# a_n225_n42# VSUBS sky130_fd_pr__nfet_01v8 ad=0.0693 pd=0.75 as=0.0693 ps=0.75 w=0.42 l=0.15
.ends

.subckt cmfb_pmos vin Vb vin2 Vbias Vref Vdd gnd
XXM12 Vdd gnd m1_514_1671# vin2 gnd sky130_fd_pr__pfet_01v8_TM5SY6
XXM14 Vref gnd Vcm Vdd sky130_fd_pr__nfet_01v8_SMGLWN
XXM13 Vref gnd Vcm Vdd sky130_fd_pr__nfet_01v8_SMGLWN
XXM15 Vdd Vcm gnd Vref gnd sky130_fd_pr__pfet_01v8_TM5SY6
Xsky130_fd_pr__pfet_01v8_lvt_PH9SS5_0 Vdd Vdd Vdd Vdd gnd sky130_fd_pr__pfet_01v8_lvt_PH9SS5
XXM16 Vdd Vcm gnd Vref gnd sky130_fd_pr__pfet_01v8_TM5SY6
Xsky130_fd_pr__pfet_01v8_lvt_PH9SS5_2 Vcm m1_1556_1667# Vb Vdd gnd sky130_fd_pr__pfet_01v8_lvt_PH9SS5
Xsky130_fd_pr__pfet_01v8_lvt_PH9SS5_1 m1_514_1671# m1_1726_1062# m1_1556_1667# Vdd
+ gnd sky130_fd_pr__pfet_01v8_lvt_PH9SS5
Xsky130_fd_pr__pfet_01v8_lvt_PH9SS5_3 Vdd Vdd Vdd Vdd gnd sky130_fd_pr__pfet_01v8_lvt_PH9SS5
Xsky130_fd_pr__pfet_01v8_BH9SS5_0 Vdd m1_4045_1475# m1_1556_1667# Vdd gnd sky130_fd_pr__pfet_01v8_BH9SS5
Xsky130_fd_pr__pfet_01v8_BH9SS5_1 Vdd m1_4045_1475# Vdd m1_4045_1475# gnd sky130_fd_pr__pfet_01v8_BH9SS5
XXM1 gnd gnd gnd gnd sky130_fd_pr__nfet_01v8_SMGLWN
Xsky130_fd_pr__nfet_01v8_J7MSU8_0 Vdd Vdd gnd gnd gnd Vdd gnd gnd sky130_fd_pr__nfet_01v8_J7MSU8
XXM2 gnd gnd gnd gnd sky130_fd_pr__nfet_01v8_SMGLWN
Xsky130_fd_pr__nfet_01v8_3374R3_0 m1_4045_1475# gnd Vbias gnd sky130_fd_pr__nfet_01v8_3374R3
XXM4 Vdd gnd m1_514_1671# vin gnd sky130_fd_pr__pfet_01v8_TM5SY6
XXM7 m1_1726_1062# gnd gnd m1_1726_1062# sky130_fd_pr__nfet_01v8_SMGLWN
XXM8 m1_1726_1062# gnd Vb gnd sky130_fd_pr__nfet_01v8_SMGLWN
Xsky130_fd_pr__nfet_01v8_GWAZJ9_0 Vdd gnd Vdd gnd gnd Vdd gnd gnd Vdd Vdd gnd Vdd
+ Vdd gnd Vdd gnd gnd gnd sky130_fd_pr__nfet_01v8_GWAZJ9
XXM10 vin gnd Vdd m1_514_1671# sky130_fd_pr__nfet_01v8_SMGLWN
XXM11 vin2 gnd Vdd m1_514_1671# sky130_fd_pr__nfet_01v8_SMGLWN
Xsky130_fd_pr__nfet_01v8_GWFSUW_0 Vdd gnd Vdd gnd gnd Vdd gnd gnd Vdd Vdd gnd Vdd
+ Vdd gnd Vdd gnd gnd gnd sky130_fd_pr__nfet_01v8_GWFSUW
C0 gnd Vdd 4.530061f
C1 Vdd 0 16.127813f
.ends

.subckt sky130_fd_pr__nfet_01v8_PVEW3M a_n210_n274# a_50_n100# a_n108_n100# a_n50_n188#
X0 a_50_n100# a_n50_n188# a_n108_n100# a_n210_n274# sky130_fd_pr__nfet_01v8 ad=0.29 pd=2.58 as=0.29 ps=2.58 w=1 l=0.5
.ends

.subckt cmfb XM9/a_n50_n188# m1_541_1279# m1_904_1580# m1_1973_1162# Vdd m1_3238_1273#
+ gnd
XXM12 Vdd gnd m1_604_1671# m1_904_1580# gnd sky130_fd_pr__pfet_01v8_TM5SY6
XXM14 m1_3238_1273# gnd Vcm Vdd sky130_fd_pr__nfet_01v8_SMGLWN
XXM13 m1_3238_1273# gnd Vcm Vdd sky130_fd_pr__nfet_01v8_SMGLWN
XXM15 Vdd Vcm gnd m1_3238_1273# gnd sky130_fd_pr__pfet_01v8_TM5SY6
XXM16 Vdd Vcm gnd m1_3238_1273# gnd sky130_fd_pr__pfet_01v8_TM5SY6
XXM18 Vdd Vdd Vdd Vdd gnd sky130_fd_pr__pfet_01v8_TM5SY6
XXM1 gnd gnd gnd gnd sky130_fd_pr__nfet_01v8_SMGLWN
XXM2 gnd gnd gnd gnd sky130_fd_pr__nfet_01v8_SMGLWN
XXM3 Vdd Vdd Vdd Vdd gnd sky130_fd_pr__pfet_01v8_TM5SY6
XXM4 Vdd gnd m1_604_1671# m1_541_1279# gnd sky130_fd_pr__pfet_01v8_TM5SY6
XXM5 Vdd Vdd m1_1719_1576# m1_1719_1576# gnd sky130_fd_pr__pfet_01v8_TM5SY6
XXM6 Vdd m1_1973_1162# Vdd m1_1719_1576# gnd sky130_fd_pr__pfet_01v8_TM5SY6
XXM7 m1_604_1671# gnd m1_1600_1134# m1_1719_1576# sky130_fd_pr__nfet_01v8_SMGLWN
XXM9 gnd gnd m1_1600_1134# XM9/a_n50_n188# sky130_fd_pr__nfet_01v8_PVEW3M
XXM8 Vcm gnd m1_1973_1162# m1_1600_1134# sky130_fd_pr__nfet_01v8_SMGLWN
XXM10 m1_541_1279# gnd Vdd m1_604_1671# sky130_fd_pr__nfet_01v8_SMGLWN
XXM11 m1_904_1580# gnd Vdd m1_604_1671# sky130_fd_pr__nfet_01v8_SMGLWN
C0 Vdd gnd 10.147207f
.ends

.subckt sky130_fd_pr__pfet_01v8_lvt_TM5SY6 w_n246_n269# a_n108_n50# a_50_n50# a_n50_n147#
+ VSUBS
X0 a_50_n50# a_n50_n147# a_n108_n50# w_n246_n269# sky130_fd_pr__pfet_01v8_lvt ad=0.145 pd=1.58 as=0.145 ps=1.58 w=0.5 l=0.5
.ends

.subckt sky130_fd_pr__nfet_01v8_EJYG4R a_445_n69# a_n345_n69# a_n187_n69# a_287_n69#
+ a_29_n157# a_n129_n157# a_187_n157# a_n287_n157# a_345_n157# a_n445_n157# a_129_n69#
+ a_n605_n243# a_n29_n69# a_n503_n69#
X0 a_129_n69# a_29_n157# a_n29_n69# a_n605_n243# sky130_fd_pr__nfet_01v8 ad=0.145 pd=1.29 as=0.145 ps=1.29 w=1 l=0.5
X1 a_n187_n69# a_n287_n157# a_n345_n69# a_n605_n243# sky130_fd_pr__nfet_01v8 ad=0.145 pd=1.29 as=0.145 ps=1.29 w=1 l=0.5
X2 a_n345_n69# a_n445_n157# a_n503_n69# a_n605_n243# sky130_fd_pr__nfet_01v8 ad=0.145 pd=1.29 as=0.29 ps=2.58 w=1 l=0.5
X3 a_n29_n69# a_n129_n157# a_n187_n69# a_n605_n243# sky130_fd_pr__nfet_01v8 ad=0.145 pd=1.29 as=0.145 ps=1.29 w=1 l=0.5
X4 a_287_n69# a_187_n157# a_129_n69# a_n605_n243# sky130_fd_pr__nfet_01v8 ad=0.145 pd=1.29 as=0.145 ps=1.29 w=1 l=0.5
X5 a_445_n69# a_345_n157# a_287_n69# a_n605_n243# sky130_fd_pr__nfet_01v8 ad=0.29 pd=2.58 as=0.145 ps=1.29 w=1 l=0.5
.ends

.subckt sky130_fd_pr__cap_mim_m3_1_TNHPNJ m3_n2186_n1040# c1_n2146_n1000# VSUBS
X0 c1_n2146_n1000# m3_n2186_n1040# sky130_fd_pr__cap_mim_m3_1 l=10 w=20
C0 c1_n2146_n1000# m3_n2186_n1040# 18.0887f
C1 m3_n2186_n1040# VSUBS 5.87816f
.ends

.subckt integrator_new1 m1_2976_3044# m1_5204_2614# XM1/a_n50_n138# XM2/a_n50_n138#
+ Vdd vo1 m1_1624_2482# gnd
XXM18 Vdd Vdd m1_1624_2482# m1_2976_3044# gnd sky130_fd_pr__pfet_01v8_lvt_TM5SY6
XXM1 XM1/a_n50_n138# gnd m1_2972_2616# m1_1624_2482# sky130_fd_pr__nfet_01v8_SMGLWN
Xsky130_fd_pr__pfet_01v8_lvt_TM5SY6_0 Vdd Vdd Vdd Vdd gnd sky130_fd_pr__pfet_01v8_lvt_TM5SY6
XXM2 XM2/a_n50_n138# gnd vo1 m1_2972_2616# sky130_fd_pr__nfet_01v8_SMGLWN
XXM3 Vdd vo1 Vdd m1_2976_3044# gnd sky130_fd_pr__pfet_01v8_lvt_TM5SY6
Xsky130_fd_pr__nfet_01v8_EJYG4R_0 m1_2972_2616# gnd m1_2972_2616# gnd m1_5204_2614#
+ m1_5204_2614# m1_5204_2614# m1_5204_2614# m1_5204_2614# m1_5204_2614# m1_2972_2616#
+ gnd gnd m1_2972_2616# sky130_fd_pr__nfet_01v8_EJYG4R
XXM6 Vdd Vdd Vdd Vdd gnd sky130_fd_pr__pfet_01v8_lvt_TM5SY6
XXC3 vo1 m1_1624_2482# gnd sky130_fd_pr__cap_mim_m3_1_TNHPNJ
Xsky130_fd_pr__nfet_01v8_SMGLWN_0 gnd gnd gnd gnd sky130_fd_pr__nfet_01v8_SMGLWN
Xsky130_fd_pr__nfet_01v8_SMGLWN_1 gnd gnd gnd gnd sky130_fd_pr__nfet_01v8_SMGLWN
C0 vo1 0 6.427438f
C1 Vdd 0 3.965386f
C2 m1_1624_2482# 0 3.015339f
.ends

.subckt integrator_full_new_compact m1_3488_148# m1_2968_n304# m1_514_118# cmfb_0/Vdd
+ integrator_new1_0/Vdd integrator_new1_0/XM1/a_n50_n138# integrator_new1_0/vo1 integrator_new1_0/XM2/a_n50_n138#
+ VSUBS
Xcmfb_0 m1_2968_n304# m1_514_118# integrator_new1_0/vo1 m1_1946_216# cmfb_0/Vdd m1_3488_148#
+ VSUBS cmfb
Xintegrator_new1_0 m1_1946_216# m1_2968_n304# integrator_new1_0/XM1/a_n50_n138# integrator_new1_0/XM2/a_n50_n138#
+ integrator_new1_0/Vdd integrator_new1_0/vo1 m1_514_118# VSUBS integrator_new1
C0 m1_2968_n304# VSUBS 2.325057f
C1 integrator_new1_0/vo1 VSUBS 7.4793f
C2 integrator_new1_0/Vdd VSUBS 4.492663f
C3 m1_514_118# VSUBS 3.954661f
C4 cmfb_0/Vdd VSUBS 8.365775f
.ends

.subckt sky130_fd_pr__nfet_01v8_LYF9NA a_50_n100# a_n50_n126# a_n108_n100# VSUBS
X0 a_50_n100# a_n50_n126# a_n108_n100# VSUBS sky130_fd_pr__nfet_01v8 ad=0.29 pd=2.58 as=0.29 ps=2.58 w=1 l=0.5
.ends

.subckt full_stage_modified integrator_full_new_compact_0/integrator_new1_0/XM1/a_n50_n138#
+ integrator_full_new_compact_0/integrator_new1_0/XM2/a_n50_n138# vbias_integrator
+ integrator_full_new_compact_0/m1_514_118# integrator_full_new_compact_0/cmfb_0/Vdd
+ integrator_full_new_compact_0/VSUBS integrator_full_new_compact_0/m1_3488_148# integrator_full_new_compact_0/integrator_new1_0/vo1
Xintegrator_full_new_compact_0 integrator_full_new_compact_0/m1_3488_148# vbias_integrator
+ integrator_full_new_compact_0/m1_514_118# integrator_full_new_compact_0/cmfb_0/Vdd
+ integrator_full_new_compact_0/cmfb_0/Vdd integrator_full_new_compact_0/integrator_new1_0/XM1/a_n50_n138#
+ integrator_full_new_compact_0/integrator_new1_0/vo1 integrator_full_new_compact_0/integrator_new1_0/XM2/a_n50_n138#
+ integrator_full_new_compact_0/VSUBS integrator_full_new_compact
Xsky130_fd_pr__nfet_01v8_LYF9NA_0 vbias_integrator vbias_integrator integrator_full_new_compact_0/VSUBS
+ integrator_full_new_compact_0/VSUBS sky130_fd_pr__nfet_01v8_LYF9NA
C0 vbias_integrator integrator_full_new_compact_0/VSUBS 3.605652f
C1 integrator_full_new_compact_0/integrator_new1_0/vo1 integrator_full_new_compact_0/VSUBS 7.113595f
C2 integrator_full_new_compact_0/m1_514_118# integrator_full_new_compact_0/VSUBS 4.222571f
C3 integrator_full_new_compact_0/cmfb_0/Vdd integrator_full_new_compact_0/VSUBS 12.283999f
.ends

.subckt sky130_fd_pr__nfet_01v8_R9GHMP a_n108_n50# a_50_n50# a_n50_n76# VSUBS
X0 a_50_n50# a_n50_n76# a_n108_n50# VSUBS sky130_fd_pr__nfet_01v8 ad=0.145 pd=1.58 as=0.145 ps=1.58 w=0.5 l=0.5
.ends

.subckt sky130_fd_pr__pfet_01v8_lvt_W2QHLG a_n108_n50# w_n144_n112# a_50_n50# a_n50_n76#
+ VSUBS
X0 a_50_n50# a_n50_n76# a_n108_n50# w_n144_n112# sky130_fd_pr__pfet_01v8_lvt ad=0.145 pd=1.58 as=0.145 ps=1.58 w=0.5 l=0.5
.ends

.subckt source_follower_buffer vdd gnd out in2 in1
Xsky130_fd_pr__nfet_01v8_R9GHMP_0 vdd out in1 gnd sky130_fd_pr__nfet_01v8_R9GHMP
Xsky130_fd_pr__nfet_01v8_R9GHMP_1 out vdd in2 gnd sky130_fd_pr__nfet_01v8_R9GHMP
Xsky130_fd_pr__pfet_01v8_lvt_W2QHLG_0 out vdd gnd in2 gnd sky130_fd_pr__pfet_01v8_lvt_W2QHLG
Xsky130_fd_pr__pfet_01v8_lvt_W2QHLG_1 gnd vdd out in1 gnd sky130_fd_pr__pfet_01v8_lvt_W2QHLG
.ends

.subckt sky130_fd_pr__pfet_01v8_lvt_Y7VTPE a_400_n136# a_n458_n136# a_n400_n162# w_n494_n198#
+ VSUBS
X0 a_400_n136# a_n400_n162# a_n458_n136# w_n494_n198# sky130_fd_pr__pfet_01v8_lvt ad=0.29 pd=2.58 as=0.29 ps=2.58 w=1 l=4
.ends

.subckt reference0_9 Vdd gnd w_n32_n858# VSUBS
Xsky130_fd_pr__pfet_01v8_lvt_Y7VTPE_0 Vdd w_n32_n858# w_n32_n858# Vdd VSUBS sky130_fd_pr__pfet_01v8_lvt_Y7VTPE
Xsky130_fd_pr__pfet_01v8_lvt_Y7VTPE_1 w_n32_n858# gnd gnd w_n32_n858# VSUBS sky130_fd_pr__pfet_01v8_lvt_Y7VTPE
C0 gnd VSUBS 3.519423f
C1 w_n32_n858# VSUBS 3.15528f
C2 Vdd VSUBS 3.036635f
.ends

.subckt sky130_fd_pr__pfet_01v8_lvt_T5G9WD a_n108_n64# w_n144_n164# a_50_n64# a_n50_n161#
+ VSUBS
X0 a_50_n64# a_n50_n161# a_n108_n64# w_n144_n164# sky130_fd_pr__pfet_01v8_lvt ad=0.29 pd=2.58 as=0.29 ps=2.58 w=1 l=0.5
.ends

.subckt sky130_fd_pr__pfet_01v8_lvt_46RJ2R w_n494_n164# a_400_n64# a_n400_n161# a_n458_n64#
+ VSUBS
X0 a_400_n64# a_n400_n161# a_n458_n64# w_n494_n164# sky130_fd_pr__pfet_01v8_lvt ad=0.29 pd=2.58 as=0.29 ps=2.58 w=1 l=4
.ends

.subckt reference vo1 vo2 m1_20_n778# w_0_0# VSUBS
Xsky130_fd_pr__pfet_01v8_lvt_T5G9WD_0 vo1 vo2 vo2 vo1 VSUBS sky130_fd_pr__pfet_01v8_lvt_T5G9WD
Xsky130_fd_pr__pfet_01v8_lvt_46RJ2R_0 w_0_0# vo2 vo2 w_0_0# VSUBS sky130_fd_pr__pfet_01v8_lvt_46RJ2R
Xsky130_fd_pr__pfet_01v8_lvt_46RJ2R_1 vo1 vo1 m1_20_n778# m1_20_n778# VSUBS sky130_fd_pr__pfet_01v8_lvt_46RJ2R
C0 vo1 VSUBS 2.387336f
C1 vo2 VSUBS 2.190784f
.ends

.subckt sky130_fd_sc_hd__o31a_1 A1 A2 A3 B1 VGND VNB VPB VPWR X
X0 a_103_199# B1 a_253_47# VNB sky130_fd_pr__nfet_01v8 ad=0.2015 pd=1.92 as=0.10725 ps=0.98 w=0.65 l=0.15
X1 VPWR a_103_199# X VPB sky130_fd_pr__pfet_01v8_hvt ad=0.195 pd=1.39 as=0.36 ps=2.72 w=1 l=0.15
X2 a_337_297# A2 a_253_297# VPB sky130_fd_pr__pfet_01v8_hvt ad=0.165 pd=1.33 as=0.135 ps=1.27 w=1 l=0.15
X3 a_103_199# A3 a_337_297# VPB sky130_fd_pr__pfet_01v8_hvt ad=0.2125 pd=1.425 as=0.165 ps=1.33 w=1 l=0.15
X4 a_253_297# A1 VPWR VPB sky130_fd_pr__pfet_01v8_hvt ad=0.135 pd=1.27 as=0.195 ps=1.39 w=1 l=0.15
X5 VPWR B1 a_103_199# VPB sky130_fd_pr__pfet_01v8_hvt ad=0.345 pd=2.69 as=0.2125 ps=1.425 w=1 l=0.15
X6 VGND a_103_199# X VNB sky130_fd_pr__nfet_01v8 ad=0.12675 pd=1.04 as=0.234 ps=2.02 w=0.65 l=0.15
X7 a_253_47# A1 VGND VNB sky130_fd_pr__nfet_01v8 ad=0.08775 pd=0.92 as=0.12675 ps=1.04 w=0.65 l=0.15
X8 a_253_47# A3 VGND VNB sky130_fd_pr__nfet_01v8 ad=0.10725 pd=0.98 as=0.10725 ps=0.98 w=0.65 l=0.15
X9 VGND A2 a_253_47# VNB sky130_fd_pr__nfet_01v8 ad=0.10725 pd=0.98 as=0.08775 ps=0.92 w=0.65 l=0.15
.ends

.subckt sky130_fd_sc_hd__dfrtp_1 CLK D RESET_B VGND VNB VPB VPWR Q
X0 a_1217_47# a_27_47# a_1108_47# VNB sky130_fd_pr__nfet_01v8 ad=0.0669 pd=0.75 as=0.0711 ps=0.755 w=0.36 l=0.15
X1 a_805_47# a_761_289# a_639_47# VNB sky130_fd_pr__nfet_01v8 ad=0.0441 pd=0.63 as=0.1401 ps=1.1 w=0.42 l=0.15
X2 a_1108_47# a_193_47# a_761_289# VNB sky130_fd_pr__nfet_01v8 ad=0.0711 pd=0.755 as=0.0999 ps=0.985 w=0.36 l=0.15
X3 a_1283_21# a_1108_47# a_1462_47# VNB sky130_fd_pr__nfet_01v8 ad=0.1092 pd=1.36 as=0.06405 ps=0.725 w=0.42 l=0.15
X4 a_651_413# a_27_47# a_543_47# VPB sky130_fd_pr__pfet_01v8_hvt ad=0.1155 pd=0.97 as=0.07245 ps=0.765 w=0.42 l=0.15
X5 VGND RESET_B a_805_47# VNB sky130_fd_pr__nfet_01v8 ad=0.1346 pd=1.15 as=0.0441 ps=0.63 w=0.42 l=0.15
X6 Q a_1283_21# VPWR VPB sky130_fd_pr__pfet_01v8_hvt ad=0.26 pd=2.52 as=0.3012 ps=2.66 w=1 l=0.15
X7 VPWR CLK a_27_47# VPB sky130_fd_pr__pfet_01v8_hvt ad=0.0864 pd=0.91 as=0.1664 ps=1.8 w=0.64 l=0.15
X8 a_448_47# D VPWR VPB sky130_fd_pr__pfet_01v8_hvt ad=0.0651 pd=0.73 as=0.1092 ps=1.36 w=0.42 l=0.15
X9 a_761_289# a_543_47# VGND VNB sky130_fd_pr__nfet_01v8 ad=0.0999 pd=0.985 as=0.1346 ps=1.15 w=0.64 l=0.15
X10 a_193_47# a_27_47# VGND VNB sky130_fd_pr__nfet_01v8 ad=0.1092 pd=1.36 as=0.0567 ps=0.69 w=0.42 l=0.15
X11 a_1108_47# a_27_47# a_761_289# VPB sky130_fd_pr__pfet_01v8_hvt ad=0.0588 pd=0.7 as=0.12915 ps=1.185 w=0.42 l=0.15
X12 a_543_47# a_27_47# a_448_47# VNB sky130_fd_pr__nfet_01v8 ad=0.0594 pd=0.69 as=0.066 ps=0.745 w=0.36 l=0.15
X13 a_1462_47# RESET_B VGND VNB sky130_fd_pr__nfet_01v8 ad=0.06405 pd=0.725 as=0.12495 ps=1.015 w=0.42 l=0.15
X14 a_543_47# a_193_47# a_448_47# VPB sky130_fd_pr__pfet_01v8_hvt ad=0.07245 pd=0.765 as=0.0651 ps=0.73 w=0.42 l=0.15
X15 a_448_47# D VGND VNB sky130_fd_pr__nfet_01v8 ad=0.066 pd=0.745 as=0.2205 ps=1.89 w=0.42 l=0.15
X16 VPWR a_1283_21# a_1270_413# VPB sky130_fd_pr__pfet_01v8_hvt ad=0.0819 pd=0.81 as=0.0567 ps=0.69 w=0.42 l=0.15
X17 VPWR a_1108_47# a_1283_21# VPB sky130_fd_pr__pfet_01v8_hvt ad=0.1134 pd=1.38 as=0.0567 ps=0.69 w=0.42 l=0.15
X18 a_1270_413# a_193_47# a_1108_47# VPB sky130_fd_pr__pfet_01v8_hvt ad=0.0567 pd=0.69 as=0.0588 ps=0.7 w=0.42 l=0.15
X19 a_193_47# a_27_47# VPWR VPB sky130_fd_pr__pfet_01v8_hvt ad=0.1664 pd=1.8 as=0.0864 ps=0.91 w=0.64 l=0.15
X20 a_1283_21# RESET_B VPWR VPB sky130_fd_pr__pfet_01v8_hvt ad=0.0567 pd=0.69 as=0.0819 ps=0.81 w=0.42 l=0.15
X21 VPWR a_761_289# a_651_413# VPB sky130_fd_pr__pfet_01v8_hvt ad=0.07035 pd=0.755 as=0.1155 ps=0.97 w=0.42 l=0.15
X22 Q a_1283_21# VGND VNB sky130_fd_pr__nfet_01v8 ad=0.169 pd=1.82 as=0.2087 ps=2.02 w=0.65 l=0.15
X23 a_639_47# a_193_47# a_543_47# VNB sky130_fd_pr__nfet_01v8 ad=0.1401 pd=1.1 as=0.0594 ps=0.69 w=0.36 l=0.15
X24 VGND a_1283_21# a_1217_47# VNB sky130_fd_pr__nfet_01v8 ad=0.12495 pd=1.015 as=0.0669 ps=0.75 w=0.42 l=0.15
X25 a_651_413# RESET_B VPWR VPB sky130_fd_pr__pfet_01v8_hvt ad=0.1092 pd=1.36 as=0.07035 ps=0.755 w=0.42 l=0.15
X26 VGND CLK a_27_47# VNB sky130_fd_pr__nfet_01v8 ad=0.0567 pd=0.69 as=0.1092 ps=1.36 w=0.42 l=0.15
X27 a_761_289# a_543_47# VPWR VPB sky130_fd_pr__pfet_01v8_hvt ad=0.12915 pd=1.185 as=0.2184 ps=2.2 w=0.84 l=0.15
.ends

.subckt sky130_ef_sc_hd__decap_12 VGND VPWR VPB VNB
X0 VPWR VGND VPWR VPB sky130_fd_pr__pfet_01v8_hvt ad=0.2262 pd=2.26 as=0.4524 ps=4.52 w=0.87 l=4.73
X1 VGND VPWR VGND VNB sky130_fd_pr__nfet_01v8 ad=0.143 pd=1.62 as=0.286 ps=3.24 w=0.55 l=4.73
.ends

.subckt sky130_fd_sc_hd__buf_2 A VGND VNB VPB VPWR X
X0 VPWR a_27_47# X VPB sky130_fd_pr__pfet_01v8_hvt ad=0.265 pd=2.53 as=0.135 ps=1.27 w=1 l=0.15
X1 X a_27_47# VPWR VPB sky130_fd_pr__pfet_01v8_hvt ad=0.135 pd=1.27 as=0.149 ps=1.325 w=1 l=0.15
X2 VPWR A a_27_47# VPB sky130_fd_pr__pfet_01v8_hvt ad=0.149 pd=1.325 as=0.1664 ps=1.8 w=0.64 l=0.15
X3 X a_27_47# VGND VNB sky130_fd_pr__nfet_01v8 ad=0.08775 pd=0.92 as=0.097 ps=0.975 w=0.65 l=0.15
X4 VGND a_27_47# X VNB sky130_fd_pr__nfet_01v8 ad=0.17225 pd=1.83 as=0.08775 ps=0.92 w=0.65 l=0.15
X5 VGND A a_27_47# VNB sky130_fd_pr__nfet_01v8 ad=0.097 pd=0.975 as=0.1092 ps=1.36 w=0.42 l=0.15
.ends

.subckt sky130_fd_sc_hd__decap_3 VGND VNB VPB VPWR
X0 VPWR VGND VPWR VPB sky130_fd_pr__pfet_01v8_hvt ad=0.2262 pd=2.26 as=0.4524 ps=4.52 w=0.87 l=0.59
X1 VGND VPWR VGND VNB sky130_fd_pr__nfet_01v8 ad=0.143 pd=1.62 as=0.286 ps=3.24 w=0.55 l=0.59
.ends

.subckt sky130_fd_sc_hd__or3_1 A B C VGND VNB VPB VPWR X
X0 X a_29_53# VPWR VPB sky130_fd_pr__pfet_01v8_hvt ad=0.28 pd=2.56 as=0.14825 ps=1.34 w=1 l=0.15
X1 a_111_297# C a_29_53# VPB sky130_fd_pr__pfet_01v8_hvt ad=0.0441 pd=0.63 as=0.1092 ps=1.36 w=0.42 l=0.15
X2 X a_29_53# VGND VNB sky130_fd_pr__nfet_01v8 ad=0.182 pd=1.86 as=0.101875 ps=0.99 w=0.65 l=0.15
X3 a_183_297# B a_111_297# VPB sky130_fd_pr__pfet_01v8_hvt ad=0.0693 pd=0.75 as=0.0441 ps=0.63 w=0.42 l=0.15
X4 VPWR A a_183_297# VPB sky130_fd_pr__pfet_01v8_hvt ad=0.14825 pd=1.34 as=0.0693 ps=0.75 w=0.42 l=0.15
X5 a_29_53# B VGND VNB sky130_fd_pr__nfet_01v8 ad=0.0567 pd=0.69 as=0.0567 ps=0.69 w=0.42 l=0.15
X6 VGND C a_29_53# VNB sky130_fd_pr__nfet_01v8 ad=0.0567 pd=0.69 as=0.1092 ps=1.36 w=0.42 l=0.15
X7 VGND A a_29_53# VNB sky130_fd_pr__nfet_01v8 ad=0.101875 pd=0.99 as=0.0567 ps=0.69 w=0.42 l=0.15
.ends

.subckt sky130_fd_sc_hd__decap_8 VGND VNB VPB VPWR
X0 VPWR VGND VPWR VPB sky130_fd_pr__pfet_01v8_hvt ad=0.2262 pd=2.26 as=0.4524 ps=4.52 w=0.87 l=2.89
X1 VGND VPWR VGND VNB sky130_fd_pr__nfet_01v8 ad=0.143 pd=1.62 as=0.286 ps=3.24 w=0.55 l=2.89
.ends

.subckt sky130_fd_sc_hd__nor3b_1 A B C_N VGND VNB VPB VPWR Y
X0 VGND a_91_199# Y VNB sky130_fd_pr__nfet_01v8 ad=0.08775 pd=0.92 as=0.221 ps=1.98 w=0.65 l=0.15
X1 Y B VGND VNB sky130_fd_pr__nfet_01v8 ad=0.08775 pd=0.92 as=0.08775 ps=0.92 w=0.65 l=0.15
X2 VPWR A a_245_297# VPB sky130_fd_pr__pfet_01v8_hvt ad=0.14575 pd=1.335 as=0.135 ps=1.27 w=1 l=0.15
X3 a_91_199# C_N VGND VNB sky130_fd_pr__nfet_01v8 ad=0.1092 pd=1.36 as=0.10025 ps=0.985 w=0.42 l=0.15
X4 VGND A Y VNB sky130_fd_pr__nfet_01v8 ad=0.10025 pd=0.985 as=0.08775 ps=0.92 w=0.65 l=0.15
X5 a_245_297# B a_161_297# VPB sky130_fd_pr__pfet_01v8_hvt ad=0.135 pd=1.27 as=0.135 ps=1.27 w=1 l=0.15
X6 a_91_199# C_N VPWR VPB sky130_fd_pr__pfet_01v8_hvt ad=0.1092 pd=1.36 as=0.14575 ps=1.335 w=0.42 l=0.15
X7 a_161_297# a_91_199# Y VPB sky130_fd_pr__pfet_01v8_hvt ad=0.135 pd=1.27 as=0.32 ps=2.64 w=1 l=0.15
.ends

.subckt sky130_fd_sc_hd__clkbuf_4 A VGND VNB VPB VPWR X
X0 VPWR A a_27_47# VPB sky130_fd_pr__pfet_01v8_hvt ad=0.165 pd=1.33 as=0.265 ps=2.53 w=1 l=0.15
X1 VGND a_27_47# X VNB sky130_fd_pr__nfet_01v8 ad=0.1218 pd=1.42 as=0.0588 ps=0.7 w=0.42 l=0.15
X2 VGND a_27_47# X VNB sky130_fd_pr__nfet_01v8 ad=0.0588 pd=0.7 as=0.0588 ps=0.7 w=0.42 l=0.15
X3 X a_27_47# VPWR VPB sky130_fd_pr__pfet_01v8_hvt ad=0.14 pd=1.28 as=0.14 ps=1.28 w=1 l=0.15
X4 X a_27_47# VGND VNB sky130_fd_pr__nfet_01v8 ad=0.0588 pd=0.7 as=0.0588 ps=0.7 w=0.42 l=0.15
X5 VGND A a_27_47# VNB sky130_fd_pr__nfet_01v8 ad=0.07035 pd=0.755 as=0.1113 ps=1.37 w=0.42 l=0.15
X6 VPWR a_27_47# X VPB sky130_fd_pr__pfet_01v8_hvt ad=0.3 pd=2.6 as=0.14 ps=1.28 w=1 l=0.15
X7 X a_27_47# VGND VNB sky130_fd_pr__nfet_01v8 ad=0.0588 pd=0.7 as=0.07035 ps=0.755 w=0.42 l=0.15
X8 X a_27_47# VPWR VPB sky130_fd_pr__pfet_01v8_hvt ad=0.14 pd=1.28 as=0.165 ps=1.33 w=1 l=0.15
X9 VPWR a_27_47# X VPB sky130_fd_pr__pfet_01v8_hvt ad=0.14 pd=1.28 as=0.14 ps=1.28 w=1 l=0.15
.ends

.subckt sky130_fd_sc_hd__o32a_1 A1 A2 A3 B1 B2 VGND VNB VPB VPWR X
X0 a_77_199# B2 a_227_47# VNB sky130_fd_pr__nfet_01v8 ad=0.13325 pd=1.06 as=0.12675 ps=1.04 w=0.65 l=0.15
X1 a_323_297# A2 a_227_297# VPB sky130_fd_pr__pfet_01v8_hvt ad=0.195 pd=1.39 as=0.165 ps=1.33 w=1 l=0.15
X2 a_227_297# A1 VPWR VPB sky130_fd_pr__pfet_01v8_hvt ad=0.165 pd=1.33 as=0.135 ps=1.27 w=1 l=0.15
X3 a_227_47# B1 a_77_199# VNB sky130_fd_pr__nfet_01v8 ad=0.1885 pd=1.88 as=0.13325 ps=1.06 w=0.65 l=0.15
X4 VGND a_77_199# X VNB sky130_fd_pr__nfet_01v8 ad=0.08775 pd=0.92 as=0.169 ps=1.82 w=0.65 l=0.15
X5 VPWR B1 a_539_297# VPB sky130_fd_pr__pfet_01v8_hvt ad=0.29 pd=2.58 as=0.205 ps=1.41 w=1 l=0.15
X6 a_227_47# A3 VGND VNB sky130_fd_pr__nfet_01v8 ad=0.12675 pd=1.04 as=0.12675 ps=1.04 w=0.65 l=0.15
X7 VPWR a_77_199# X VPB sky130_fd_pr__pfet_01v8_hvt ad=0.135 pd=1.27 as=0.335 ps=2.67 w=1 l=0.15
X8 a_77_199# A3 a_323_297# VPB sky130_fd_pr__pfet_01v8_hvt ad=0.195 pd=1.39 as=0.195 ps=1.39 w=1 l=0.15
X9 VGND A2 a_227_47# VNB sky130_fd_pr__nfet_01v8 ad=0.12675 pd=1.04 as=0.10725 ps=0.98 w=0.65 l=0.15
X10 a_227_47# A1 VGND VNB sky130_fd_pr__nfet_01v8 ad=0.10725 pd=0.98 as=0.08775 ps=0.92 w=0.65 l=0.15
X11 a_539_297# B2 a_77_199# VPB sky130_fd_pr__pfet_01v8_hvt ad=0.205 pd=1.41 as=0.195 ps=1.39 w=1 l=0.15
.ends

.subckt sky130_fd_sc_hd__decap_4 VGND VNB VPB VPWR
X0 VPWR VGND VPWR VPB sky130_fd_pr__pfet_01v8_hvt ad=0.2262 pd=2.26 as=0.4524 ps=4.52 w=0.87 l=1.05
X1 VGND VPWR VGND VNB sky130_fd_pr__nfet_01v8 ad=0.143 pd=1.62 as=0.286 ps=3.24 w=0.55 l=1.05
.ends

.subckt sky130_fd_sc_hd__o21a_1 A1 A2 B1 VGND VNB VPB VPWR X
X0 VPWR A1 a_382_297# VPB sky130_fd_pr__pfet_01v8_hvt ad=0.26 pd=2.52 as=0.1525 ps=1.305 w=1 l=0.15
X1 a_297_47# B1 a_79_21# VNB sky130_fd_pr__nfet_01v8 ad=0.10075 pd=0.96 as=0.169 ps=1.82 w=0.65 l=0.15
X2 a_297_47# A1 VGND VNB sky130_fd_pr__nfet_01v8 ad=0.169 pd=1.82 as=0.08775 ps=0.92 w=0.65 l=0.15
X3 VGND A2 a_297_47# VNB sky130_fd_pr__nfet_01v8 ad=0.08775 pd=0.92 as=0.10075 ps=0.96 w=0.65 l=0.15
X4 VPWR a_79_21# X VPB sky130_fd_pr__pfet_01v8_hvt ad=0.3275 pd=1.655 as=0.28 ps=2.56 w=1 l=0.15
X5 a_79_21# B1 VPWR VPB sky130_fd_pr__pfet_01v8_hvt ad=0.195 pd=1.39 as=0.3275 ps=1.655 w=1 l=0.15
X6 a_382_297# A2 a_79_21# VPB sky130_fd_pr__pfet_01v8_hvt ad=0.1525 pd=1.305 as=0.195 ps=1.39 w=1 l=0.15
X7 VGND a_79_21# X VNB sky130_fd_pr__nfet_01v8 ad=0.169 pd=1.82 as=0.169 ps=1.82 w=0.65 l=0.15
.ends

.subckt sky130_fd_sc_hd__a21oi_1 A1 A2 B1 VGND VNB VPB VPWR Y
X0 a_199_47# A1 Y VNB sky130_fd_pr__nfet_01v8 ad=0.095875 pd=0.945 as=0.091 ps=0.93 w=0.65 l=0.15
X1 a_113_297# A2 VPWR VPB sky130_fd_pr__pfet_01v8_hvt ad=0.265 pd=2.53 as=0.1475 ps=1.295 w=1 l=0.15
X2 Y B1 VGND VNB sky130_fd_pr__nfet_01v8 ad=0.091 pd=0.93 as=0.17225 ps=1.83 w=0.65 l=0.15
X3 VPWR A1 a_113_297# VPB sky130_fd_pr__pfet_01v8_hvt ad=0.1475 pd=1.295 as=0.14 ps=1.28 w=1 l=0.15
X4 a_113_297# B1 Y VPB sky130_fd_pr__pfet_01v8_hvt ad=0.14 pd=1.28 as=0.265 ps=2.53 w=1 l=0.15
X5 VGND A2 a_199_47# VNB sky130_fd_pr__nfet_01v8 ad=0.17225 pd=1.83 as=0.095875 ps=0.945 w=0.65 l=0.15
.ends

.subckt sky130_fd_sc_hd__clkbuf_16 A VGND VNB VPB VPWR X
X0 VPWR A a_110_47# VPB sky130_fd_pr__pfet_01v8_hvt ad=0.14 pd=1.28 as=0.14 ps=1.28 w=1 l=0.15
X1 VPWR a_110_47# X VPB sky130_fd_pr__pfet_01v8_hvt ad=0.14 pd=1.28 as=0.14 ps=1.28 w=1 l=0.15
X2 X a_110_47# VPWR VPB sky130_fd_pr__pfet_01v8_hvt ad=0.14 pd=1.28 as=0.14 ps=1.28 w=1 l=0.15
X3 X a_110_47# VPWR VPB sky130_fd_pr__pfet_01v8_hvt ad=0.14 pd=1.28 as=0.14 ps=1.28 w=1 l=0.15
X4 VPWR a_110_47# X VPB sky130_fd_pr__pfet_01v8_hvt ad=0.14 pd=1.28 as=0.14 ps=1.28 w=1 l=0.15
X5 VPWR a_110_47# X VPB sky130_fd_pr__pfet_01v8_hvt ad=0.265 pd=2.53 as=0.14 ps=1.28 w=1 l=0.15
X6 a_110_47# A VPWR VPB sky130_fd_pr__pfet_01v8_hvt ad=0.14 pd=1.28 as=0.265 ps=2.53 w=1 l=0.15
X7 a_110_47# A VGND VNB sky130_fd_pr__nfet_01v8 ad=0.0588 pd=0.7 as=0.0588 ps=0.7 w=0.42 l=0.15
X8 VGND a_110_47# X VNB sky130_fd_pr__nfet_01v8 ad=0.0588 pd=0.7 as=0.0588 ps=0.7 w=0.42 l=0.15
X9 X a_110_47# VGND VNB sky130_fd_pr__nfet_01v8 ad=0.0588 pd=0.7 as=0.0588 ps=0.7 w=0.42 l=0.15
X10 VGND a_110_47# X VNB sky130_fd_pr__nfet_01v8 ad=0.0588 pd=0.7 as=0.0588 ps=0.7 w=0.42 l=0.15
X11 a_110_47# A VPWR VPB sky130_fd_pr__pfet_01v8_hvt ad=0.14 pd=1.28 as=0.14 ps=1.28 w=1 l=0.15
X12 VGND A a_110_47# VNB sky130_fd_pr__nfet_01v8 ad=0.0588 pd=0.7 as=0.0588 ps=0.7 w=0.42 l=0.15
X13 VGND a_110_47# X VNB sky130_fd_pr__nfet_01v8 ad=0.05775 pd=0.695 as=0.0588 ps=0.7 w=0.42 l=0.15
X14 VPWR a_110_47# X VPB sky130_fd_pr__pfet_01v8_hvt ad=0.14 pd=1.28 as=0.14 ps=1.28 w=1 l=0.15
X15 X a_110_47# VPWR VPB sky130_fd_pr__pfet_01v8_hvt ad=0.14 pd=1.28 as=0.14 ps=1.28 w=1 l=0.15
X16 VGND A a_110_47# VNB sky130_fd_pr__nfet_01v8 ad=0.0588 pd=0.7 as=0.0588 ps=0.7 w=0.42 l=0.15
X17 VGND a_110_47# X VNB sky130_fd_pr__nfet_01v8 ad=0.1113 pd=1.37 as=0.0588 ps=0.7 w=0.42 l=0.15
X18 VPWR a_110_47# X VPB sky130_fd_pr__pfet_01v8_hvt ad=0.1375 pd=1.275 as=0.14 ps=1.28 w=1 l=0.15
X19 VGND a_110_47# X VNB sky130_fd_pr__nfet_01v8 ad=0.0588 pd=0.7 as=0.0588 ps=0.7 w=0.42 l=0.15
X20 X a_110_47# VPWR VPB sky130_fd_pr__pfet_01v8_hvt ad=0.14 pd=1.28 as=0.1375 ps=1.275 w=1 l=0.15
X21 a_110_47# A VGND VNB sky130_fd_pr__nfet_01v8 ad=0.0588 pd=0.7 as=0.1113 ps=1.37 w=0.42 l=0.15
X22 VPWR A a_110_47# VPB sky130_fd_pr__pfet_01v8_hvt ad=0.14 pd=1.28 as=0.14 ps=1.28 w=1 l=0.15
X23 VPWR a_110_47# X VPB sky130_fd_pr__pfet_01v8_hvt ad=0.14 pd=1.28 as=0.14 ps=1.28 w=1 l=0.15
X24 VPWR a_110_47# X VPB sky130_fd_pr__pfet_01v8_hvt ad=0.14 pd=1.28 as=0.14 ps=1.28 w=1 l=0.15
X25 VGND a_110_47# X VNB sky130_fd_pr__nfet_01v8 ad=0.0588 pd=0.7 as=0.0588 ps=0.7 w=0.42 l=0.15
X26 X a_110_47# VPWR VPB sky130_fd_pr__pfet_01v8_hvt ad=0.14 pd=1.28 as=0.14 ps=1.28 w=1 l=0.15
X27 VGND a_110_47# X VNB sky130_fd_pr__nfet_01v8 ad=0.0588 pd=0.7 as=0.0588 ps=0.7 w=0.42 l=0.15
X28 VGND a_110_47# X VNB sky130_fd_pr__nfet_01v8 ad=0.0588 pd=0.7 as=0.0588 ps=0.7 w=0.42 l=0.15
X29 X a_110_47# VGND VNB sky130_fd_pr__nfet_01v8 ad=0.0588 pd=0.7 as=0.0588 ps=0.7 w=0.42 l=0.15
X30 X a_110_47# VPWR VPB sky130_fd_pr__pfet_01v8_hvt ad=0.14 pd=1.28 as=0.14 ps=1.28 w=1 l=0.15
X31 X a_110_47# VPWR VPB sky130_fd_pr__pfet_01v8_hvt ad=0.14 pd=1.28 as=0.14 ps=1.28 w=1 l=0.15
X32 X a_110_47# VGND VNB sky130_fd_pr__nfet_01v8 ad=0.0588 pd=0.7 as=0.0588 ps=0.7 w=0.42 l=0.15
X33 VPWR a_110_47# X VPB sky130_fd_pr__pfet_01v8_hvt ad=0.14 pd=1.28 as=0.14 ps=1.28 w=1 l=0.15
X34 X a_110_47# VPWR VPB sky130_fd_pr__pfet_01v8_hvt ad=0.14 pd=1.28 as=0.14 ps=1.28 w=1 l=0.15
X35 X a_110_47# VGND VNB sky130_fd_pr__nfet_01v8 ad=0.0588 pd=0.7 as=0.0588 ps=0.7 w=0.42 l=0.15
X36 X a_110_47# VGND VNB sky130_fd_pr__nfet_01v8 ad=0.0588 pd=0.7 as=0.0588 ps=0.7 w=0.42 l=0.15
X37 X a_110_47# VGND VNB sky130_fd_pr__nfet_01v8 ad=0.0588 pd=0.7 as=0.0588 ps=0.7 w=0.42 l=0.15
X38 X a_110_47# VGND VNB sky130_fd_pr__nfet_01v8 ad=0.0588 pd=0.7 as=0.0588 ps=0.7 w=0.42 l=0.15