* SPICE3 file created from scanchain.ext - technology: sky130A

.subckt sky130_ef_sc_hd__decap_12 VGND VPWR VPB VNB
X0 VPWR VGND VPWR VPB sky130_fd_pr__pfet_01v8_hvt ad=0.2262 pd=2.26 as=0.4524 ps=4.52 w=0.87 l=4.73
X1 VGND VPWR VGND VNB sky130_fd_pr__nfet_01v8 ad=0.143 pd=1.62 as=0.286 ps=3.24 w=0.55 l=4.73
.ends

.subckt sky130_fd_sc_hd__dfrtp_1 CLK D RESET_B VGND VNB VPB VPWR Q
X0 a_1217_47# a_27_47# a_1108_47# VNB sky130_fd_pr__nfet_01v8 ad=0.0669 pd=0.75 as=0.0711 ps=0.755 w=0.36 l=0.15
X1 a_805_47# a_761_289# a_639_47# VNB sky130_fd_pr__nfet_01v8 ad=0.0441 pd=0.63 as=0.1401 ps=1.1 w=0.42 l=0.15
X2 a_1108_47# a_193_47# a_761_289# VNB sky130_fd_pr__nfet_01v8 ad=0.0711 pd=0.755 as=0.0999 ps=0.985 w=0.36 l=0.15
X3 a_1283_21# a_1108_47# a_1462_47# VNB sky130_fd_pr__nfet_01v8 ad=0.1092 pd=1.36 as=0.06405 ps=0.725 w=0.42 l=0.15
X4 a_651_413# a_27_47# a_543_47# VPB sky130_fd_pr__pfet_01v8_hvt ad=0.1155 pd=0.97 as=0.07245 ps=0.765 w=0.42 l=0.15
X5 VGND RESET_B a_805_47# VNB sky130_fd_pr__nfet_01v8 ad=0.1346 pd=1.15 as=0.0441 ps=0.63 w=0.42 l=0.15
X6 Q a_1283_21# VPWR VPB sky130_fd_pr__pfet_01v8_hvt ad=0.26 pd=2.52 as=0.3012 ps=2.66 w=1 l=0.15
X7 VPWR CLK a_27_47# VPB sky130_fd_pr__pfet_01v8_hvt ad=0.0864 pd=0.91 as=0.1664 ps=1.8 w=0.64 l=0.15
X8 a_448_47# D VPWR VPB sky130_fd_pr__pfet_01v8_hvt ad=0.0651 pd=0.73 as=0.1092 ps=1.36 w=0.42 l=0.15
X9 a_761_289# a_543_47# VGND VNB sky130_fd_pr__nfet_01v8 ad=0.0999 pd=0.985 as=0.1346 ps=1.15 w=0.64 l=0.15
X10 a_193_47# a_27_47# VGND VNB sky130_fd_pr__nfet_01v8 ad=0.1092 pd=1.36 as=0.0567 ps=0.69 w=0.42 l=0.15
X11 a_1108_47# a_27_47# a_761_289# VPB sky130_fd_pr__pfet_01v8_hvt ad=0.0588 pd=0.7 as=0.12915 ps=1.185 w=0.42 l=0.15
X12 a_543_47# a_27_47# a_448_47# VNB sky130_fd_pr__nfet_01v8 ad=0.0594 pd=0.69 as=0.066 ps=0.745 w=0.36 l=0.15
X13 a_1462_47# RESET_B VGND VNB sky130_fd_pr__nfet_01v8 ad=0.06405 pd=0.725 as=0.12495 ps=1.015 w=0.42 l=0.15
X14 a_543_47# a_193_47# a_448_47# VPB sky130_fd_pr__pfet_01v8_hvt ad=0.07245 pd=0.765 as=0.0651 ps=0.73 w=0.42 l=0.15
X15 a_448_47# D VGND VNB sky130_fd_pr__nfet_01v8 ad=0.066 pd=0.745 as=0.2205 ps=1.89 w=0.42 l=0.15
X16 VPWR a_1283_21# a_1270_413# VPB sky130_fd_pr__pfet_01v8_hvt ad=0.0819 pd=0.81 as=0.0567 ps=0.69 w=0.42 l=0.15
X17 VPWR a_1108_47# a_1283_21# VPB sky130_fd_pr__pfet_01v8_hvt ad=0.1134 pd=1.38 as=0.0567 ps=0.69 w=0.42 l=0.15
X18 a_1270_413# a_193_47# a_1108_47# VPB sky130_fd_pr__pfet_01v8_hvt ad=0.0567 pd=0.69 as=0.0588 ps=0.7 w=0.42 l=0.15
X19 a_193_47# a_27_47# VPWR VPB sky130_fd_pr__pfet_01v8_hvt ad=0.1664 pd=1.8 as=0.0864 ps=0.91 w=0.64 l=0.15
X20 a_1283_21# RESET_B VPWR VPB sky130_fd_pr__pfet_01v8_hvt ad=0.0567 pd=0.69 as=0.0819 ps=0.81 w=0.42 l=0.15
X21 VPWR a_761_289# a_651_413# VPB sky130_fd_pr__pfet_01v8_hvt ad=0.07035 pd=0.755 as=0.1155 ps=0.97 w=0.42 l=0.15
X22 Q a_1283_21# VGND VNB sky130_fd_pr__nfet_01v8 ad=0.169 pd=1.82 as=0.2087 ps=2.02 w=0.65 l=0.15
X23 a_639_47# a_193_47# a_543_47# VNB sky130_fd_pr__nfet_01v8 ad=0.1401 pd=1.1 as=0.0594 ps=0.69 w=0.36 l=0.15
X24 VGND a_1283_21# a_1217_47# VNB sky130_fd_pr__nfet_01v8 ad=0.12495 pd=1.015 as=0.0669 ps=0.75 w=0.42 l=0.15
X25 a_651_413# RESET_B VPWR VPB sky130_fd_pr__pfet_01v8_hvt ad=0.1092 pd=1.36 as=0.07035 ps=0.755 w=0.42 l=0.15
X26 VGND CLK a_27_47# VNB sky130_fd_pr__nfet_01v8 ad=0.0567 pd=0.69 as=0.1092 ps=1.36 w=0.42 l=0.15
X27 a_761_289# a_543_47# VPWR VPB sky130_fd_pr__pfet_01v8_hvt ad=0.12915 pd=1.185 as=0.2184 ps=2.2 w=0.84 l=0.15
.ends

.subckt sky130_fd_sc_hd__o31a_1 A1 A2 A3 B1 VGND VNB VPB VPWR X
X0 a_103_199# B1 a_253_47# VNB sky130_fd_pr__nfet_01v8 ad=0.2015 pd=1.92 as=0.10725 ps=0.98 w=0.65 l=0.15
X1 VPWR a_103_199# X VPB sky130_fd_pr__pfet_01v8_hvt ad=0.195 pd=1.39 as=0.36 ps=2.72 w=1 l=0.15
X2 a_337_297# A2 a_253_297# VPB sky130_fd_pr__pfet_01v8_hvt ad=0.165 pd=1.33 as=0.135 ps=1.27 w=1 l=0.15
X3 a_103_199# A3 a_337_297# VPB sky130_fd_pr__pfet_01v8_hvt ad=0.2125 pd=1.425 as=0.165 ps=1.33 w=1 l=0.15
X4 a_253_297# A1 VPWR VPB sky130_fd_pr__pfet_01v8_hvt ad=0.135 pd=1.27 as=0.195 ps=1.39 w=1 l=0.15
X5 VPWR B1 a_103_199# VPB sky130_fd_pr__pfet_01v8_hvt ad=0.345 pd=2.69 as=0.2125 ps=1.425 w=1 l=0.15
X6 VGND a_103_199# X VNB sky130_fd_pr__nfet_01v8 ad=0.12675 pd=1.04 as=0.234 ps=2.02 w=0.65 l=0.15
X7 a_253_47# A1 VGND VNB sky130_fd_pr__nfet_01v8 ad=0.08775 pd=0.92 as=0.12675 ps=1.04 w=0.65 l=0.15
X8 a_253_47# A3 VGND VNB sky130_fd_pr__nfet_01v8 ad=0.10725 pd=0.98 as=0.10725 ps=0.98 w=0.65 l=0.15
X9 VGND A2 a_253_47# VNB sky130_fd_pr__nfet_01v8 ad=0.10725 pd=0.98 as=0.08775 ps=0.92 w=0.65 l=0.15
.ends

.subckt sky130_fd_sc_hd__buf_2 A VGND VNB VPB VPWR X
X0 VPWR a_27_47# X VPB sky130_fd_pr__pfet_01v8_hvt ad=0.265 pd=2.53 as=0.135 ps=1.27 w=1 l=0.15
X1 X a_27_47# VPWR VPB sky130_fd_pr__pfet_01v8_hvt ad=0.135 pd=1.27 as=0.149 ps=1.325 w=1 l=0.15
X2 VPWR A a_27_47# VPB sky130_fd_pr__pfet_01v8_hvt ad=0.149 pd=1.325 as=0.1664 ps=1.8 w=0.64 l=0.15
X3 X a_27_47# VGND VNB sky130_fd_pr__nfet_01v8 ad=0.08775 pd=0.92 as=0.097 ps=0.975 w=0.65 l=0.15
X4 VGND a_27_47# X VNB sky130_fd_pr__nfet_01v8 ad=0.17225 pd=1.83 as=0.08775 ps=0.92 w=0.65 l=0.15
X5 VGND A a_27_47# VNB sky130_fd_pr__nfet_01v8 ad=0.097 pd=0.975 as=0.1092 ps=1.36 w=0.42 l=0.15
.ends

.subckt sky130_fd_sc_hd__decap_3 VGND VNB VPB VPWR
X0 VPWR VGND VPWR VPB sky130_fd_pr__pfet_01v8_hvt ad=0.2262 pd=2.26 as=0.4524 ps=4.52 w=0.87 l=0.59
X1 VGND VPWR VGND VNB sky130_fd_pr__nfet_01v8 ad=0.143 pd=1.62 as=0.286 ps=3.24 w=0.55 l=0.59
.ends

.subckt sky130_fd_sc_hd__or3_1 A B C VGND VNB VPB VPWR X
X0 X a_29_53# VPWR VPB sky130_fd_pr__pfet_01v8_hvt ad=0.28 pd=2.56 as=0.14825 ps=1.34 w=1 l=0.15
X1 a_111_297# C a_29_53# VPB sky130_fd_pr__pfet_01v8_hvt ad=0.0441 pd=0.63 as=0.1092 ps=1.36 w=0.42 l=0.15
X2 X a_29_53# VGND VNB sky130_fd_pr__nfet_01v8 ad=0.182 pd=1.86 as=0.101875 ps=0.99 w=0.65 l=0.15
X3 a_183_297# B a_111_297# VPB sky130_fd_pr__pfet_01v8_hvt ad=0.0693 pd=0.75 as=0.0441 ps=0.63 w=0.42 l=0.15
X4 VPWR A a_183_297# VPB sky130_fd_pr__pfet_01v8_hvt ad=0.14825 pd=1.34 as=0.0693 ps=0.75 w=0.42 l=0.15
X5 a_29_53# B VGND VNB sky130_fd_pr__nfet_01v8 ad=0.0567 pd=0.69 as=0.0567 ps=0.69 w=0.42 l=0.15
X6 VGND C a_29_53# VNB sky130_fd_pr__nfet_01v8 ad=0.0567 pd=0.69 as=0.1092 ps=1.36 w=0.42 l=0.15
X7 VGND A a_29_53# VNB sky130_fd_pr__nfet_01v8 ad=0.101875 pd=0.99 as=0.0567 ps=0.69 w=0.42 l=0.15
.ends

.subckt sky130_fd_sc_hd__decap_8 VGND VNB VPB VPWR
X0 VPWR VGND VPWR VPB sky130_fd_pr__pfet_01v8_hvt ad=0.2262 pd=2.26 as=0.4524 ps=4.52 w=0.87 l=2.89
X1 VGND VPWR VGND VNB sky130_fd_pr__nfet_01v8 ad=0.143 pd=1.62 as=0.286 ps=3.24 w=0.55 l=2.89
.ends

.subckt sky130_fd_sc_hd__nor3b_1 A B C_N VGND VNB VPB VPWR Y
X0 VGND a_91_199# Y VNB sky130_fd_pr__nfet_01v8 ad=0.08775 pd=0.92 as=0.221 ps=1.98 w=0.65 l=0.15
X1 Y B VGND VNB sky130_fd_pr__nfet_01v8 ad=0.08775 pd=0.92 as=0.08775 ps=0.92 w=0.65 l=0.15
X2 VPWR A a_245_297# VPB sky130_fd_pr__pfet_01v8_hvt ad=0.14575 pd=1.335 as=0.135 ps=1.27 w=1 l=0.15
X3 a_91_199# C_N VGND VNB sky130_fd_pr__nfet_01v8 ad=0.1092 pd=1.36 as=0.10025 ps=0.985 w=0.42 l=0.15
X4 VGND A Y VNB sky130_fd_pr__nfet_01v8 ad=0.10025 pd=0.985 as=0.08775 ps=0.92 w=0.65 l=0.15
X5 a_245_297# B a_161_297# VPB sky130_fd_pr__pfet_01v8_hvt ad=0.135 pd=1.27 as=0.135 ps=1.27 w=1 l=0.15
X6 a_91_199# C_N VPWR VPB sky130_fd_pr__pfet_01v8_hvt ad=0.1092 pd=1.36 as=0.14575 ps=1.335 w=0.42 l=0.15
X7 a_161_297# a_91_199# Y VPB sky130_fd_pr__pfet_01v8_hvt ad=0.135 pd=1.27 as=0.32 ps=2.64 w=1 l=0.15
.ends

.subckt sky130_fd_sc_hd__clkbuf_4 A VGND VNB VPB VPWR X
X0 VPWR A a_27_47# VPB sky130_fd_pr__pfet_01v8_hvt ad=0.165 pd=1.33 as=0.265 ps=2.53 w=1 l=0.15
X1 VGND a_27_47# X VNB sky130_fd_pr__nfet_01v8 ad=0.1218 pd=1.42 as=0.0588 ps=0.7 w=0.42 l=0.15
X2 VGND a_27_47# X VNB sky130_fd_pr__nfet_01v8 ad=0.0588 pd=0.7 as=0.0588 ps=0.7 w=0.42 l=0.15
X3 X a_27_47# VPWR VPB sky130_fd_pr__pfet_01v8_hvt ad=0.14 pd=1.28 as=0.14 ps=1.28 w=1 l=0.15
X4 X a_27_47# VGND VNB sky130_fd_pr__nfet_01v8 ad=0.0588 pd=0.7 as=0.0588 ps=0.7 w=0.42 l=0.15
X5 VGND A a_27_47# VNB sky130_fd_pr__nfet_01v8 ad=0.07035 pd=0.755 as=0.1113 ps=1.37 w=0.42 l=0.15
X6 VPWR a_27_47# X VPB sky130_fd_pr__pfet_01v8_hvt ad=0.3 pd=2.6 as=0.14 ps=1.28 w=1 l=0.15
X7 X a_27_47# VGND VNB sky130_fd_pr__nfet_01v8 ad=0.0588 pd=0.7 as=0.07035 ps=0.755 w=0.42 l=0.15
X8 X a_27_47# VPWR VPB sky130_fd_pr__pfet_01v8_hvt ad=0.14 pd=1.28 as=0.165 ps=1.33 w=1 l=0.15
X9 VPWR a_27_47# X VPB sky130_fd_pr__pfet_01v8_hvt ad=0.14 pd=1.28 as=0.14 ps=1.28 w=1 l=0.15
.ends

.subckt sky130_fd_sc_hd__decap_4 VGND VNB VPB VPWR
X0 VPWR VGND VPWR VPB sky130_fd_pr__pfet_01v8_hvt ad=0.2262 pd=2.26 as=0.4524 ps=4.52 w=0.87 l=1.05
X1 VGND VPWR VGND VNB sky130_fd_pr__nfet_01v8 ad=0.143 pd=1.62 as=0.286 ps=3.24 w=0.55 l=1.05
.ends

.subckt sky130_fd_sc_hd__o32a_1 A1 A2 A3 B1 B2 VGND VNB VPB VPWR X
X0 a_77_199# B2 a_227_47# VNB sky130_fd_pr__nfet_01v8 ad=0.13325 pd=1.06 as=0.12675 ps=1.04 w=0.65 l=0.15
X1 a_323_297# A2 a_227_297# VPB sky130_fd_pr__pfet_01v8_hvt ad=0.195 pd=1.39 as=0.165 ps=1.33 w=1 l=0.15
X2 a_227_297# A1 VPWR VPB sky130_fd_pr__pfet_01v8_hvt ad=0.165 pd=1.33 as=0.135 ps=1.27 w=1 l=0.15
X3 a_227_47# B1 a_77_199# VNB sky130_fd_pr__nfet_01v8 ad=0.1885 pd=1.88 as=0.13325 ps=1.06 w=0.65 l=0.15
X4 VGND a_77_199# X VNB sky130_fd_pr__nfet_01v8 ad=0.08775 pd=0.92 as=0.169 ps=1.82 w=0.65 l=0.15
X5 VPWR B1 a_539_297# VPB sky130_fd_pr__pfet_01v8_hvt ad=0.29 pd=2.58 as=0.205 ps=1.41 w=1 l=0.15
X6 a_227_47# A3 VGND VNB sky130_fd_pr__nfet_01v8 ad=0.12675 pd=1.04 as=0.12675 ps=1.04 w=0.65 l=0.15
X7 VPWR a_77_199# X VPB sky130_fd_pr__pfet_01v8_hvt ad=0.135 pd=1.27 as=0.335 ps=2.67 w=1 l=0.15
X8 a_77_199# A3 a_323_297# VPB sky130_fd_pr__pfet_01v8_hvt ad=0.195 pd=1.39 as=0.195 ps=1.39 w=1 l=0.15
X9 VGND A2 a_227_47# VNB sky130_fd_pr__nfet_01v8 ad=0.12675 pd=1.04 as=0.10725 ps=0.98 w=0.65 l=0.15
X10 a_227_47# A1 VGND VNB sky130_fd_pr__nfet_01v8 ad=0.10725 pd=0.98 as=0.08775 ps=0.92 w=0.65 l=0.15
X11 a_539_297# B2 a_77_199# VPB sky130_fd_pr__pfet_01v8_hvt ad=0.205 pd=1.41 as=0.195 ps=1.39 w=1 l=0.15
.ends

.subckt sky130_fd_sc_hd__o21a_1 A1 A2 B1 VGND VNB VPB VPWR X
X0 VPWR A1 a_382_297# VPB sky130_fd_pr__pfet_01v8_hvt ad=0.26 pd=2.52 as=0.1525 ps=1.305 w=1 l=0.15
X1 a_297_47# B1 a_79_21# VNB sky130_fd_pr__nfet_01v8 ad=0.10075 pd=0.96 as=0.169 ps=1.82 w=0.65 l=0.15
X2 a_297_47# A1 VGND VNB sky130_fd_pr__nfet_01v8 ad=0.169 pd=1.82 as=0.08775 ps=0.92 w=0.65 l=0.15
X3 VGND A2 a_297_47# VNB sky130_fd_pr__nfet_01v8 ad=0.08775 pd=0.92 as=0.10075 ps=0.96 w=0.65 l=0.15
X4 VPWR a_79_21# X VPB sky130_fd_pr__pfet_01v8_hvt ad=0.3275 pd=1.655 as=0.28 ps=2.56 w=1 l=0.15
X5 a_79_21# B1 VPWR VPB sky130_fd_pr__pfet_01v8_hvt ad=0.195 pd=1.39 as=0.3275 ps=1.655 w=1 l=0.15
X6 a_382_297# A2 a_79_21# VPB sky130_fd_pr__pfet_01v8_hvt ad=0.1525 pd=1.305 as=0.195 ps=1.39 w=1 l=0.15
X7 VGND a_79_21# X VNB sky130_fd_pr__nfet_01v8 ad=0.169 pd=1.82 as=0.169 ps=1.82 w=0.65 l=0.15
.ends

.subckt sky130_fd_sc_hd__a21oi_1 A1 A2 B1 VGND VNB VPB VPWR Y
X0 a_199_47# A1 Y VNB sky130_fd_pr__nfet_01v8 ad=0.095875 pd=0.945 as=0.091 ps=0.93 w=0.65 l=0.15
X1 a_113_297# A2 VPWR VPB sky130_fd_pr__pfet_01v8_hvt ad=0.265 pd=2.53 as=0.1475 ps=1.295 w=1 l=0.15
X2 Y B1 VGND VNB sky130_fd_pr__nfet_01v8 ad=0.091 pd=0.93 as=0.17225 ps=1.83 w=0.65 l=0.15
X3 VPWR A1 a_113_297# VPB sky130_fd_pr__pfet_01v8_hvt ad=0.1475 pd=1.295 as=0.14 ps=1.28 w=1 l=0.15
X4 a_113_297# B1 Y VPB sky130_fd_pr__pfet_01v8_hvt ad=0.14 pd=1.28 as=0.265 ps=2.53 w=1 l=0.15
X5 VGND A2 a_199_47# VNB sky130_fd_pr__nfet_01v8 ad=0.17225 pd=1.83 as=0.095875 ps=0.945 w=0.65 l=0.15
.ends

.subckt sky130_fd_sc_hd__clkbuf_16 A VGND VNB VPB VPWR X
X0 VPWR A a_110_47# VPB sky130_fd_pr__pfet_01v8_hvt ad=0.14 pd=1.28 as=0.14 ps=1.28 w=1 l=0.15
X1 VPWR a_110_47# X VPB sky130_fd_pr__pfet_01v8_hvt ad=0.14 pd=1.28 as=0.14 ps=1.28 w=1 l=0.15
X2 X a_110_47# VPWR VPB sky130_fd_pr__pfet_01v8_hvt ad=0.14 pd=1.28 as=0.14 ps=1.28 w=1 l=0.15
X3 X a_110_47# VPWR VPB sky130_fd_pr__pfet_01v8_hvt ad=0.14 pd=1.28 as=0.14 ps=1.28 w=1 l=0.15
X4 VPWR a_110_47# X VPB sky130_fd_pr__pfet_01v8_hvt ad=0.14 pd=1.28 as=0.14 ps=1.28 w=1 l=0.15
X5 VPWR a_110_47# X VPB sky130_fd_pr__pfet_01v8_hvt ad=0.265 pd=2.53 as=0.14 ps=1.28 w=1 l=0.15
X6 a_110_47# A VPWR VPB sky130_fd_pr__pfet_01v8_hvt ad=0.14 pd=1.28 as=0.265 ps=2.53 w=1 l=0.15
X7 a_110_47# A VGND VNB sky130_fd_pr__nfet_01v8 ad=0.0588 pd=0.7 as=0.0588 ps=0.7 w=0.42 l=0.15
X8 VGND a_110_47# X VNB sky130_fd_pr__nfet_01v8 ad=0.0588 pd=0.7 as=0.0588 ps=0.7 w=0.42 l=0.15
X9 X a_110_47# VGND VNB sky130_fd_pr__nfet_01v8 ad=0.0588 pd=0.7 as=0.0588 ps=0.7 w=0.42 l=0.15
X10 VGND a_110_47# X VNB sky130_fd_pr__nfet_01v8 ad=0.0588 pd=0.7 as=0.0588 ps=0.7 w=0.42 l=0.15
X11 a_110_47# A VPWR VPB sky130_fd_pr__pfet_01v8_hvt ad=0.14 pd=1.28 as=0.14 ps=1.28 w=1 l=0.15
X12 VGND A a_110_47# VNB sky130_fd_pr__nfet_01v8 ad=0.0588 pd=0.7 as=0.0588 ps=0.7 w=0.42 l=0.15
X13 VGND a_110_47# X VNB sky130_fd_pr__nfet_01v8 ad=0.05775 pd=0.695 as=0.0588 ps=0.7 w=0.42 l=0.15
X14 VPWR a_110_47# X VPB sky130_fd_pr__pfet_01v8_hvt ad=0.14 pd=1.28 as=0.14 ps=1.28 w=1 l=0.15
X15 X a_110_47# VPWR VPB sky130_fd_pr__pfet_01v8_hvt ad=0.14 pd=1.28 as=0.14 ps=1.28 w=1 l=0.15
X16 VGND A a_110_47# VNB sky130_fd_pr__nfet_01v8 ad=0.0588 pd=0.7 as=0.0588 ps=0.7 w=0.42 l=0.15
X17 VGND a_110_47# X VNB sky130_fd_pr__nfet_01v8 ad=0.1113 pd=1.37 as=0.0588 ps=0.7 w=0.42 l=0.15
X18 VPWR a_110_47# X VPB sky130_fd_pr__pfet_01v8_hvt ad=0.1375 pd=1.275 as=0.14 ps=1.28 w=1 l=0.15
X19 VGND a_110_47# X VNB sky130_fd_pr__nfet_01v8 ad=0.0588 pd=0.7 as=0.0588 ps=0.7 w=0.42 l=0.15
X20 X a_110_47# VPWR VPB sky130_fd_pr__pfet_01v8_hvt ad=0.14 pd=1.28 as=0.1375 ps=1.275 w=1 l=0.15
X21 a_110_47# A VGND VNB sky130_fd_pr__nfet_01v8 ad=0.0588 pd=0.7 as=0.1113 ps=1.37 w=0.42 l=0.15
X22 VPWR A a_110_47# VPB sky130_fd_pr__pfet_01v8_hvt ad=0.14 pd=1.28 as=0.14 ps=1.28 w=1 l=0.15
X23 VPWR a_110_47# X VPB sky130_fd_pr__pfet_01v8_hvt ad=0.14 pd=1.28 as=0.14 ps=1.28 w=1 l=0.15
X24 VPWR a_110_47# X VPB sky130_fd_pr__pfet_01v8_hvt ad=0.14 pd=1.28 as=0.14 ps=1.28 w=1 l=0.15
X25 VGND a_110_47# X VNB sky130_fd_pr__nfet_01v8 ad=0.0588 pd=0.7 as=0.0588 ps=0.7 w=0.42 l=0.15
X26 X a_110_47# VPWR VPB sky130_fd_pr__pfet_01v8_hvt ad=0.14 pd=1.28 as=0.14 ps=1.28 w=1 l=0.15
X27 VGND a_110_47# X VNB sky130_fd_pr__nfet_01v8 ad=0.0588 pd=0.7 as=0.0588 ps=0.7 w=0.42 l=0.15
X28 VGND a_110_47# X VNB sky130_fd_pr__nfet_01v8 ad=0.0588 pd=0.7 as=0.0588 ps=0.7 w=0.42 l=0.15
X29 X a_110_47# VGND VNB sky130_fd_pr__nfet_01v8 ad=0.0588 pd=0.7 as=0.0588 ps=0.7 w=0.42 l=0.15
X30 X a_110_47# VPWR VPB sky130_fd_pr__pfet_01v8_hvt ad=0.14 pd=1.28 as=0.14 ps=1.28 w=1 l=0.15
X31 X a_110_47# VPWR VPB sky130_fd_pr__pfet_01v8_hvt ad=0.14 pd=1.28 as=0.14 ps=1.28 w=1 l=0.15
X32 X a_110_47# VGND VNB sky130_fd_pr__nfet_01v8 ad=0.0588 pd=0.7 as=0.0588 ps=0.7 w=0.42 l=0.15
X33 VPWR a_110_47# X VPB sky130_fd_pr__pfet_01v8_hvt ad=0.14 pd=1.28 as=0.14 ps=1.28 w=1 l=0.15
X34 X a_110_47# VPWR VPB sky130_fd_pr__pfet_01v8_hvt ad=0.14 pd=1.28 as=0.14 ps=1.28 w=1 l=0.15
X35 X a_110_47# VGND VNB sky130_fd_pr__nfet_01v8 ad=0.0588 pd=0.7 as=0.0588 ps=0.7 w=0.42 l=0.15
X36 X a_110_47# VGND VNB sky130_fd_pr__nfet_01v8 ad=0.0588 pd=0.7 as=0.0588 ps=0.7 w=0.42 l=0.15
X37 X a_110_47# VGND VNB sky130_fd_pr__nfet_01v8 ad=0.0588 pd=0.7 as=0.0588 ps=0.7 w=0.42 l=0.15
X38 X a_110_47# VGND VNB sky130_fd_pr__nfet_01v8 ad=0.0588 pd=0.7 as=0.0588 ps=0.7 w=0.42 l=0.15
X39 X a_110_47# VGND VNB sky130_fd_pr__nfet_01v8 ad=0.0588 pd=0.7 as=0.05775 ps=0.695 w=0.42 l=0.15
.ends

.subckt sky130_fd_sc_hd__decap_6 VGND VNB VPB VPWR
X0 VPWR VGND VPWR VPB sky130_fd_pr__pfet_01v8_hvt ad=0.2262 pd=2.26 as=0.4524 ps=4.52 w=0.87 l=1.97
X1 VGND VPWR VGND VNB sky130_fd_pr__nfet_01v8 ad=0.143 pd=1.62 as=0.286 ps=3.24 w=0.55 l=1.97
.ends

.subckt sky130_fd_sc_hd__buf_1 A VGND VNB VPB VPWR X
X0 VPWR A a_27_47# VPB sky130_fd_pr__pfet_01v8_hvt ad=0.11455 pd=1.08 as=0.2054 ps=2.1 w=0.79 l=0.15
X1 X a_27_47# VGND VNB sky130_fd_pr__nfet_01v8 ad=0.1352 pd=1.56 as=0.0754 ps=0.81 w=0.52 l=0.15
X2 X a_27_47# VPWR VPB sky130_fd_pr__pfet_01v8_hvt ad=0.2054 pd=2.1 as=0.11455 ps=1.08 w=0.79 l=0.15
X3 VGND A a_27_47# VNB sky130_fd_pr__nfet_01v8 ad=0.0754 pd=0.81 as=0.1352 ps=1.56 w=0.52 l=0.15
.ends

.subckt sky130_fd_sc_hd__clkbuf_1 A VGND VNB VPB VPWR X
X0 VPWR a_75_212# X VPB sky130_fd_pr__pfet_01v8_hvt ad=0.11455 pd=1.08 as=0.2054 ps=2.1 w=0.79 l=0.15
X1 a_75_212# A VGND VNB sky130_fd_pr__nfet_01v8 ad=0.1352 pd=1.56 as=0.0754 ps=0.81 w=0.52 l=0.15
X2 a_75_212# A VPWR VPB sky130_fd_pr__pfet_01v8_hvt ad=0.2054 pd=2.1 as=0.11455 ps=1.08 w=0.79 l=0.15
X3 VGND a_75_212# X VNB sky130_fd_pr__nfet_01v8 ad=0.0754 pd=0.81 as=0.1352 ps=1.56 w=0.52 l=0.15
.ends

.subckt sky130_fd_sc_hd__dlymetal6s2s_1 A VGND VNB VPB VPWR X
X0 a_558_47# a_381_47# VPWR VPB sky130_fd_pr__pfet_01v8_hvt ad=0.26 pd=2.52 as=0.14075 ps=1.325 w=1 l=0.15
X1 VGND X a_381_47# VNB sky130_fd_pr__nfet_01v8 ad=0.097 pd=0.975 as=0.1092 ps=1.36 w=0.42 l=0.15
X2 a_841_47# a_664_47# VPWR VPB sky130_fd_pr__pfet_01v8_hvt ad=0.26 pd=2.52 as=0.14075 ps=1.325 w=1 l=0.15
X3 VPWR A a_62_47# VPB sky130_fd_pr__pfet_01v8_hvt ad=0.14075 pd=1.325 as=0.1092 ps=1.36 w=0.42 l=0.15
X4 VGND A a_62_47# VNB sky130_fd_pr__nfet_01v8 ad=0.097 pd=0.975 as=0.1092 ps=1.36 w=0.42 l=0.15
X5 a_558_47# a_381_47# VGND VNB sky130_fd_pr__nfet_01v8 ad=0.169 pd=1.82 as=0.097 ps=0.975 w=0.65 l=0.15
X6 X a_62_47# VPWR VPB sky130_fd_pr__pfet_01v8_hvt ad=0.26 pd=2.52 as=0.14075 ps=1.325 w=1 l=0.15
X7 VPWR X a_381_47# VPB sky130_fd_pr__pfet_01v8_hvt ad=0.14075 pd=1.325 as=0.1092 ps=1.36 w=0.42 l=0.15
X8 a_841_47# a_664_47# VGND VNB sky130_fd_pr__nfet_01v8 ad=0.169 pd=1.82 as=0.097 ps=0.975 w=0.65 l=0.15
X9 X a_62_47# VGND VNB sky130_fd_pr__nfet_01v8 ad=0.169 pd=1.82 as=0.097 ps=0.975 w=0.65 l=0.15
X10 VPWR a_558_47# a_664_47# VPB sky130_fd_pr__pfet_01v8_hvt ad=0.14075 pd=1.325 as=0.1092 ps=1.36 w=0.42 l=0.15
X11 VGND a_558_47# a_664_47# VNB sky130_fd_pr__nfet_01v8 ad=0.097 pd=0.975 as=0.1092 ps=1.36 w=0.42 l=0.15
.ends

.subckt sky130_fd_sc_hd__dlygate4sd3_1 A VGND VNB VPB VPWR X
X0 VPWR A a_49_47# VPB sky130_fd_pr__pfet_01v8_hvt ad=0.0567 pd=0.69 as=0.1092 ps=1.36 w=0.42 l=0.15
X1 VGND a_285_47# a_391_47# VNB sky130_fd_pr__nfet_01v8 ad=0.097 pd=0.975 as=0.1092 ps=1.36 w=0.42 l=0.5
X2 X a_391_47# VPWR VPB sky130_fd_pr__pfet_01v8_hvt ad=0.26 pd=2.52 as=0.14075 ps=1.325 w=1 l=0.15
X3 VGND A a_49_47# VNB sky130_fd_pr__nfet_01v8 ad=0.0567 pd=0.69 as=0.1092 ps=1.36 w=0.42 l=0.15
X4 VPWR a_285_47# a_391_47# VPB sky130_fd_pr__pfet_01v8_hvt ad=0.14075 pd=1.325 as=0.1092 ps=1.36 w=0.42 l=0.5
X5 a_285_47# a_49_47# VGND VNB sky130_fd_pr__nfet_01v8 ad=0.1092 pd=1.36 as=0.0567 ps=0.69 w=0.42 l=0.5
X6 a_285_47# a_49_47# VPWR VPB sky130_fd_pr__pfet_01v8_hvt ad=0.1092 pd=1.36 as=0.0567 ps=0.69 w=0.42 l=0.5
X7 X a_391_47# VGND VNB sky130_fd_pr__nfet_01v8 ad=0.169 pd=1.82 as=0.097 ps=0.975 w=0.65 l=0.15
.ends

.subckt sky130_fd_sc_hd__a221o_1 A1 A2 B1 B2 C1 VGND VNB VPB VPWR X
X0 a_465_47# A1 a_27_47# VNB sky130_fd_pr__nfet_01v8 ad=0.10725 pd=0.98 as=0.169 ps=1.82 w=0.65 l=0.15
X1 X a_27_47# VPWR VPB sky130_fd_pr__pfet_01v8_hvt ad=0.26 pd=2.52 as=0.1575 ps=1.315 w=1 l=0.15
X2 a_109_297# B1 a_193_297# VPB sky130_fd_pr__pfet_01v8_hvt ad=0.26 pd=2.52 as=0.135 ps=1.27 w=1 l=0.15
X3 a_193_297# B2 a_109_297# VPB sky130_fd_pr__pfet_01v8_hvt ad=0.135 pd=1.27 as=0.135 ps=1.27 w=1 l=0.15
X4 X a_27_47# VGND VNB sky130_fd_pr__nfet_01v8 ad=0.169 pd=1.82 as=0.102375 ps=0.965 w=0.65 l=0.15
X5 a_205_47# B2 VGND VNB sky130_fd_pr__nfet_01v8 ad=0.06825 pd=0.86 as=0.10725 ps=0.98 w=0.65 l=0.15
X6 VPWR A2 a_193_297# VPB sky130_fd_pr__pfet_01v8_hvt ad=0.1575 pd=1.315 as=0.165 ps=1.33 w=1 l=0.15
X7 a_193_297# A1 VPWR VPB sky130_fd_pr__pfet_01v8_hvt ad=0.165 pd=1.33 as=0.26 ps=2.52 w=1 l=0.15
X8 a_27_47# B1 a_205_47# VNB sky130_fd_pr__nfet_01v8 ad=0.169 pd=1.82 as=0.06825 ps=0.86 w=0.65 l=0.15
X9 a_109_297# C1 a_27_47# VPB sky130_fd_pr__pfet_01v8_hvt ad=0.135 pd=1.27 as=0.26 ps=2.52 w=1 l=0.15
X10 VGND C1 a_27_47# VNB sky130_fd_pr__nfet_01v8 ad=0.10725 pd=0.98 as=0.169 ps=1.82 w=0.65 l=0.15
X11 VGND A2 a_465_47# VNB sky130_fd_pr__nfet_01v8 ad=0.102375 pd=0.965 as=0.10725 ps=0.98 w=0.65 l=0.15
.ends

.subckt sky130_fd_sc_hd__and4bb_1 A_N B_N C D VGND VNB VPB VPWR X
X0 VPWR D a_343_93# VPB sky130_fd_pr__pfet_01v8_hvt ad=0.172 pd=1.46 as=0.0777 ps=0.79 w=0.42 l=0.15
X1 a_223_47# B_N VGND VNB sky130_fd_pr__nfet_01v8 ad=0.1386 pd=1.5 as=0.0588 ps=0.7 w=0.42 l=0.15
X2 a_515_93# a_223_47# a_429_93# VNB sky130_fd_pr__nfet_01v8 ad=0.0735 pd=0.77 as=0.0588 ps=0.7 w=0.42 l=0.15
X3 a_223_47# B_N VPWR VPB sky130_fd_pr__pfet_01v8_hvt ad=0.1344 pd=1.48 as=0.0588 ps=0.7 w=0.42 l=0.15
X4 VPWR A_N a_27_47# VPB sky130_fd_pr__pfet_01v8_hvt ad=0.0588 pd=0.7 as=0.168 ps=1.64 w=0.42 l=0.15
X5 VGND A_N a_27_47# VNB sky130_fd_pr__nfet_01v8 ad=0.0588 pd=0.7 as=0.168 ps=1.64 w=0.42 l=0.15
X6 X a_343_93# VPWR VPB sky130_fd_pr__pfet_01v8_hvt ad=0.26 pd=2.52 as=0.172 ps=1.46 w=1 l=0.15
X7 a_429_93# a_27_47# a_343_93# VNB sky130_fd_pr__nfet_01v8 ad=0.0588 pd=0.7 as=0.1176 ps=1.4 w=0.42 l=0.15
X8 VGND D a_615_93# VNB sky130_fd_pr__nfet_01v8 ad=0.1265 pd=1.11 as=0.0777 ps=0.79 w=0.42 l=0.15
X9 a_343_93# C VPWR VPB sky130_fd_pr__pfet_01v8_hvt ad=0.0777 pd=0.79 as=0.0735 ps=0.77 w=0.42 l=0.15
X10 a_343_93# a_27_47# VPWR VPB sky130_fd_pr__pfet_01v8_hvt ad=0.0588 pd=0.7 as=0.1218 ps=1.42 w=0.42 l=0.15
X11 a_615_93# C a_515_93# VNB sky130_fd_pr__nfet_01v8 ad=0.0777 pd=0.79 as=0.0735 ps=0.77 w=0.42 l=0.15
X12 X a_343_93# VGND VNB sky130_fd_pr__nfet_01v8 ad=0.1654 pd=1.82 as=0.1265 ps=1.11 w=0.65 l=0.15
X13 VPWR a_223_47# a_343_93# VPB sky130_fd_pr__pfet_01v8_hvt ad=0.0735 pd=0.77 as=0.0588 ps=0.7 w=0.42 l=0.15
.ends

.subckt sky130_fd_sc_hd__nor2_2 A B VGND VNB VPB VPWR Y
X0 Y B a_27_297# VPB sky130_fd_pr__pfet_01v8_hvt ad=0.135 pd=1.27 as=0.135 ps=1.27 w=1 l=0.15
X1 Y B VGND VNB sky130_fd_pr__nfet_01v8 ad=0.08775 pd=0.92 as=0.08775 ps=0.92 w=0.65 l=0.15
X2 a_27_297# A VPWR VPB sky130_fd_pr__pfet_01v8_hvt ad=0.135 pd=1.27 as=0.135 ps=1.27 w=1 l=0.15
X3 VGND A Y VNB sky130_fd_pr__nfet_01v8 ad=0.08775 pd=0.92 as=0.08775 ps=0.92 w=0.65 l=0.15
X4 Y A VGND VNB sky130_fd_pr__nfet_01v8 ad=0.08775 pd=0.92 as=0.182 ps=1.86 w=0.65 l=0.15
X5 VGND B Y VNB sky130_fd_pr__nfet_01v8 ad=0.169 pd=1.82 as=0.08775 ps=0.92 w=0.65 l=0.15
X6 VPWR A a_27_297# VPB sky130_fd_pr__pfet_01v8_hvt ad=0.135 pd=1.27 as=0.28 ps=2.56 w=1 l=0.15
X7 a_27_297# B Y VPB sky130_fd_pr__pfet_01v8_hvt ad=0.26 pd=2.52 as=0.135 ps=1.27 w=1 l=0.15
.ends

.subckt scanchain clk data_out[2] data_out[5] data_out[7] enable reset scan_en scan_in
+ scan_out shift data_out[4] data_out[1] data_out[6] data_out[3] VDD GND data_out[0]
XFILLER_0_0_29 GND VDD VDD GND sky130_ef_sc_hd__decap_12
X_66_ clknet_1_0__leaf_clk _02_ net2 GND GND VDD VDD net8 sky130_fd_sc_hd__dfrtp_1
X_49_ _09_ _19_ _20_ _21_ GND GND VDD VDD _03_ sky130_fd_sc_hd__o31a_1
Xoutput7 net7 GND GND VDD VDD data_out[1] sky130_fd_sc_hd__buf_2
XFILLER_0_13_30 GND VDD VDD GND sky130_ef_sc_hd__decap_12
XPHY_EDGE_ROW_12_Right_12 GND GND VDD VDD sky130_fd_sc_hd__decap_3
X_65_ clknet_1_0__leaf_clk _01_ net2 GND GND VDD VDD net7 sky130_fd_sc_hd__dfrtp_1
XFILLER_0_10_53 GND GND VDD VDD sky130_fd_sc_hd__decap_3
X_48_ _14_ net1 net9 GND GND VDD VDD _21_ sky130_fd_sc_hd__or3_1
XFILLER_0_13_9 GND VDD VDD GND sky130_ef_sc_hd__decap_12
Xoutput8 net8 GND GND VDD VDD data_out[2] sky130_fd_sc_hd__buf_2
XFILLER_0_6_18 GND GND VDD VDD sky130_fd_sc_hd__decap_8
Xoutput10 net10 GND GND VDD VDD data_out[4] sky130_fd_sc_hd__buf_2
XPHY_EDGE_ROW_6_Right_6 GND GND VDD VDD sky130_fd_sc_hd__decap_3
X_64_ clknet_1_0__leaf_clk _00_ net2 GND GND VDD VDD net6 sky130_fd_sc_hd__dfrtp_1
X_47_ _08_ _11_ net10 GND GND VDD VDD _20_ sky130_fd_sc_hd__nor3b_1
XPHY_EDGE_ROW_12_Left_27 GND GND VDD VDD sky130_fd_sc_hd__decap_3
Xoutput11 net11 GND GND VDD VDD data_out[5] sky130_fd_sc_hd__clkbuf_4
Xoutput9 net9 GND GND VDD VDD data_out[3] sky130_fd_sc_hd__clkbuf_4
XFILLER_0_13_21 GND GND VDD VDD sky130_fd_sc_hd__decap_4
X_63_ _08_ net1 net13 _31_ net15 GND GND VDD VDD _07_ sky130_fd_sc_hd__o32a_1
XPHY_EDGE_ROW_0_Left_15 GND GND VDD VDD sky130_fd_sc_hd__decap_3
X_46_ _14_ _11_ net8 GND GND VDD VDD _19_ sky130_fd_sc_hd__o21a_1
Xoutput12 net12 GND GND VDD VDD data_out[6] sky130_fd_sc_hd__buf_2
XFILLER_0_1_42 GND GND VDD VDD sky130_fd_sc_hd__decap_8
X_62_ net1 _11_ _08_ GND GND VDD VDD _31_ sky130_fd_sc_hd__a21oi_1
X_45_ _09_ _16_ _17_ _18_ GND GND VDD VDD _02_ sky130_fd_sc_hd__o31a_1
Xoutput13 net13 GND GND VDD VDD data_out[7] sky130_fd_sc_hd__buf_2
X_61_ _09_ _28_ _29_ _30_ GND GND VDD VDD _06_ sky130_fd_sc_hd__o31a_1
X_44_ _14_ net1 net8 GND GND VDD VDD _18_ sky130_fd_sc_hd__or3_1
Xoutput14 net14 GND GND VDD VDD scan_out sky130_fd_sc_hd__clkbuf_4
XFILLER_0_10_25 GND GND VDD VDD sky130_fd_sc_hd__decap_3
XPHY_EDGE_ROW_4_Left_19 GND GND VDD VDD sky130_fd_sc_hd__decap_3
X_60_ net3 net1 net12 GND GND VDD VDD _30_ sky130_fd_sc_hd__or3_1
X_43_ _08_ _11_ net9 GND GND VDD VDD _17_ sky130_fd_sc_hd__nor3b_1
XPHY_EDGE_ROW_1_Right_1 GND GND VDD VDD sky130_fd_sc_hd__decap_3
XPHY_EDGE_ROW_7_Left_22 GND GND VDD VDD sky130_fd_sc_hd__decap_3
X_42_ _14_ _11_ net7 GND GND VDD VDD _16_ sky130_fd_sc_hd__o21a_1
XFILLER_0_1_13 GND GND VDD VDD sky130_fd_sc_hd__decap_8
Xclkbuf_0_clk clk GND GND VDD VDD clknet_0_clk sky130_fd_sc_hd__clkbuf_16
XFILLER_0_7_45 GND GND VDD VDD sky130_fd_sc_hd__decap_6
X_41_ _09_ _12_ _13_ _15_ GND GND VDD VDD _01_ sky130_fd_sc_hd__o31a_1
XFILLER_0_7_6 GND GND VDD VDD sky130_fd_sc_hd__decap_8
X_40_ _14_ net1 net7 GND GND VDD VDD _15_ sky130_fd_sc_hd__or3_1
XFILLER_0_4_25 GND GND VDD VDD sky130_fd_sc_hd__decap_3
XFILLER_0_5_3 GND GND VDD VDD sky130_fd_sc_hd__decap_6
XFILLER_0_1_26 GND GND VDD VDD sky130_fd_sc_hd__decap_3
XPHY_EDGE_ROW_5_Right_5 GND GND VDD VDD sky130_fd_sc_hd__decap_3
XFILLER_0_10_29 GND GND VDD VDD sky130_fd_sc_hd__decap_4
XPHY_EDGE_ROW_11_Left_26 GND GND VDD VDD sky130_fd_sc_hd__decap_3
XPHY_EDGE_ROW_11_Right_11 GND GND VDD VDD sky130_fd_sc_hd__decap_3
Xinput1 enable GND GND VDD VDD net1 sky130_fd_sc_hd__buf_2
XPHY_EDGE_ROW_9_Right_9 GND GND VDD VDD sky130_fd_sc_hd__decap_3
XFILLER_0_14_41 GND GND VDD VDD sky130_fd_sc_hd__decap_3
Xinput2 reset GND GND VDD VDD net2 sky130_fd_sc_hd__clkbuf_4
XPHY_EDGE_ROW_3_Left_18 GND GND VDD VDD sky130_fd_sc_hd__decap_3
Xinput3 scan_en GND GND VDD VDD net3 sky130_fd_sc_hd__buf_1
XPHY_EDGE_ROW_0_Right_0 GND GND VDD VDD sky130_fd_sc_hd__decap_3
XPHY_EDGE_ROW_6_Left_21 GND GND VDD VDD sky130_fd_sc_hd__decap_3
XFILLER_0_12_3 GND VDD VDD GND sky130_ef_sc_hd__decap_12
XFILLER_0_8_40 GND GND VDD VDD sky130_fd_sc_hd__decap_8
Xinput4 scan_in GND GND VDD VDD net4 sky130_fd_sc_hd__clkbuf_1
XFILLER_0_14_7 GND VDD VDD GND sky130_ef_sc_hd__decap_12
Xinput5 shift GND GND VDD VDD net5 sky130_fd_sc_hd__dlymetal6s2s_1
X_59_ _08_ _11_ net13 GND GND VDD VDD _29_ sky130_fd_sc_hd__nor3b_1
XPHY_EDGE_ROW_14_Right_14 GND GND VDD VDD sky130_fd_sc_hd__decap_3
X_58_ _14_ net5 net11 GND GND VDD VDD _28_ sky130_fd_sc_hd__o21a_1
XPHY_EDGE_ROW_4_Right_4 GND GND VDD VDD sky130_fd_sc_hd__decap_3
XPHY_EDGE_ROW_10_Left_25 GND GND VDD VDD sky130_fd_sc_hd__decap_3
X_57_ _09_ _25_ _26_ _27_ GND GND VDD VDD _05_ sky130_fd_sc_hd__o31a_1
X_56_ _14_ net1 net11 GND GND VDD VDD _27_ sky130_fd_sc_hd__or3_1
Xclkbuf_1_0__f_clk clknet_0_clk GND GND VDD VDD clknet_1_0__leaf_clk sky130_fd_sc_hd__clkbuf_16
X_39_ net3 GND GND VDD VDD _14_ sky130_fd_sc_hd__buf_2
X_72_ net13 GND GND VDD VDD net14 sky130_fd_sc_hd__clkbuf_1
X_55_ _08_ _11_ net12 GND GND VDD VDD _26_ sky130_fd_sc_hd__nor3b_1
XPHY_EDGE_ROW_10_Right_10 GND GND VDD VDD sky130_fd_sc_hd__decap_3
XFILLER_0_2_25 GND GND VDD VDD sky130_fd_sc_hd__decap_3
X_38_ _08_ _11_ net8 GND GND VDD VDD _13_ sky130_fd_sc_hd__nor3b_1
Xhold1 net12 GND GND VDD VDD net15 sky130_fd_sc_hd__dlygate4sd3_1
XPHY_EDGE_ROW_8_Right_8 GND GND VDD VDD sky130_fd_sc_hd__decap_3
X_71_ clknet_1_1__leaf_clk net16 net2 GND GND VDD VDD net13 sky130_fd_sc_hd__dfrtp_1
X_54_ _14_ net5 net10 GND GND VDD VDD _25_ sky130_fd_sc_hd__o21a_1
X_37_ _08_ _11_ net6 GND GND VDD VDD _12_ sky130_fd_sc_hd__o21a_1
XPHY_EDGE_ROW_14_Left_29 GND GND VDD VDD sky130_fd_sc_hd__decap_3
Xhold2 _07_ GND GND VDD VDD net16 sky130_fd_sc_hd__dlygate4sd3_1
X_70_ clknet_1_1__leaf_clk _06_ net2 GND GND VDD VDD net12 sky130_fd_sc_hd__dfrtp_1
X_53_ _09_ _22_ _23_ _24_ GND GND VDD VDD _04_ sky130_fd_sc_hd__o31a_1
XPHY_EDGE_ROW_2_Left_17 GND GND VDD VDD sky130_fd_sc_hd__decap_3
XPHY_EDGE_ROW_5_Left_20 GND GND VDD VDD sky130_fd_sc_hd__decap_3
X_36_ net5 GND GND VDD VDD _11_ sky130_fd_sc_hd__buf_2
XFILLER_0_14_29 GND VDD VDD GND sky130_ef_sc_hd__decap_12
Xhold3 net6 GND GND VDD VDD net17 sky130_fd_sc_hd__dlygate4sd3_1
X_52_ _14_ net1 net10 GND GND VDD VDD _24_ sky130_fd_sc_hd__or3_1
X_35_ _08_ net4 net17 _09_ _10_ GND GND VDD VDD _00_ sky130_fd_sc_hd__a221o_1
XFILLER_0_14_19 GND GND VDD VDD sky130_fd_sc_hd__decap_8
X_51_ _08_ _11_ net11 GND GND VDD VDD _23_ sky130_fd_sc_hd__nor3b_1
X_34_ net3 net5 net7 net1 GND GND VDD VDD _10_ sky130_fd_sc_hd__and4bb_1
X_50_ _14_ net5 net9 GND GND VDD VDD _22_ sky130_fd_sc_hd__o21a_1
X_33_ net3 net1 GND GND VDD VDD _09_ sky130_fd_sc_hd__nor2_2
XPHY_EDGE_ROW_9_Left_24 GND GND VDD VDD sky130_fd_sc_hd__decap_3
Xclkbuf_1_1__f_clk clknet_0_clk GND GND VDD VDD clknet_1_1__leaf_clk sky130_fd_sc_hd__clkbuf_16
XFILLER_0_0_41 GND GND VDD VDD sky130_fd_sc_hd__decap_4
XPHY_EDGE_ROW_3_Right_3 GND GND VDD VDD sky130_fd_sc_hd__decap_3
X_32_ net3 GND GND VDD VDD _08_ sky130_fd_sc_hd__buf_2
XPHY_EDGE_ROW_13_Right_13 GND GND VDD VDD sky130_fd_sc_hd__decap_3
XFILLER_0_3_31 GND GND VDD VDD sky130_fd_sc_hd__decap_4
XFILLER_0_4_3 GND GND VDD VDD sky130_fd_sc_hd__decap_6
XFILLER_0_6_6 GND VDD VDD GND sky130_ef_sc_hd__decap_12
XPHY_EDGE_ROW_7_Right_7 GND GND VDD VDD sky130_fd_sc_hd__decap_3
XPHY_EDGE_ROW_13_Left_28 GND GND VDD VDD sky130_fd_sc_hd__decap_3
XFILLER_0_12_36 GND GND VDD VDD sky130_fd_sc_hd__decap_4
XPHY_EDGE_ROW_1_Left_16 GND GND VDD VDD sky130_fd_sc_hd__decap_3
XFILLER_0_9_44 GND GND VDD VDD sky130_fd_sc_hd__decap_4