** sch_path: /home/ganga/CLIP-SAFE/xschem/toplevel_schematic.sch
**.subckt toplevel_schematic clk_in vint+ vint- vsource vdrain1 vdrain2 ib2 ib1 a_gnd a_vdd vdd vcp+
*+ vcp- vd1 vd2 scan_out clk scan_in reset
*.iopin clk_in
*.iopin vint+
*.iopin vint-
*.iopin vsource
*.iopin vdrain1
*.iopin vdrain2
*.iopin ib2
*.iopin ib1
*.iopin a_gnd
*.iopin a_vdd
*.iopin vdd
*.iopin vcp+
*.iopin vcp-
*.iopin vd1
*.iopin vd2
*.opin scan_out
*.ipin clk
*.ipin scan_in
*.ipin reset
x1 vdd vcp_in+ a_gnd clk_in clk reset scan_in scan_en vcp+ shift en scan_out
+ reconfigurable_CP_withScanchain2
x2 vdd vcp_in- a_gnd clk_in clk reset scan_in scan_en vcp- net1 en net2
+ reconfigurable_CP_withScanchain2
XC1 Vbcmfb a_gnd sky130_fd_pr__cap_mim_m3_1 W=30 L=30 MF=1 m=1
x3 vd2 vd1 Vref ib2 a_vdd a_gnd Vbcmfb charge_pump_cmfb
x4 a_gnd a_vdd Vref reference_0_9
XM1 vd2 Vbcmfb a_gnd a_gnd sky130_fd_pr__nfet_01v8 L=0.5 W=1 nf=1 ad='int((nf+1)/2) * W/nf * 0.29' as='int((nf+2)/2) * W/nf * 0.29'
+ pd='2*int((nf+1)/2) * (W/nf + 0.29)' ps='2*int((nf+2)/2) * (W/nf + 0.29)' nrd='0.29 / W' nrs='0.29 / W'
+ sa=0 sb=0 sd=0 mult=1 m=1
XM2 vd1 Vbcmfb a_gnd a_gnd sky130_fd_pr__nfet_01v8 L=0.5 W=1 nf=1 ad='int((nf+1)/2) * W/nf * 0.29' as='int((nf+2)/2) * W/nf * 0.29'
+ pd='2*int((nf+1)/2) * (W/nf + 0.29)' ps='2*int((nf+2)/2) * (W/nf + 0.29)' nrd='0.29 / W' nrs='0.29 / W'
+ sa=0 sb=0 sd=0 mult=1 m=1
x5 a_vdd a_gnd clk vint+ shift_b vint- a_vdd en shift a_gnd window_comparator
x6 shift_b a_gnd a_gnd a_vdd a_vdd net1 sky130_fd_sc_hd__inv_1
x7 vcp_in- a_gnd vint- a_vdd vint- source_follower_buffer
x8 vcp_in+ a_gnd vint+ a_vdd vint+ source_follower_buffer
x9 vsource vdrain2 ib2 vdrain1 Vref1 vint+ a_vdd vint- a_gnd ib1 open_loop
x10 a_gnd Vref1 a_vdd net3 reference
**** begin user architecture code


.include ./scanchain.spice
.include ./sky130_fd_sc_hd__xnor2_4.spice
.include ./sky130_fd_sc_hd__inv_1.spice



** opencircuitdesign pdks install
.lib /usr/local/share/pdk/sky130A/libs.tech/ngspice/sky130.lib.spice tt


**** end user architecture code
**.ends

* expanding   symbol:  reconfigurable_CP_withScanchain2.sym # of pins=12
** sym_path: /home/ganga/CLIP-SAFE/xschem/reconfigurable_CP_withScanchain2.sym
** sch_path: /home/ganga/CLIP-SAFE/xschem/reconfigurable_CP_withScanchain2.sch
.subckt reconfigurable_CP_withScanchain2 vdd vin gnd clk_in clk reset scan_in scan_en out shift en
+ scan_out
*.iopin gnd
*.iopin vdd
*.ipin vin
*.ipin clk_in
*.ipin clk
*.ipin reset
*.ipin scan_in
*.ipin scan_en
*.ipin shift
*.ipin en
*.opin out
*.opin scan_out
x2 gnd vdd clk in1 in2 in3 in4 in5 in6 in7 in8 en reset scan_en scan_in scan_out shift scanchain
x1 vin clk_in vdd gnd in1 in2 in3 in4 in5 in6 in7 in8 out reconfigurable_charge_pump
.ends


* expanding   symbol:  charge_pump_cmfb.sym # of pins=7
** sym_path: /home/ganga/CLIP-SAFE/xschem/charge_pump_cmfb.sym
** sch_path: /home/ganga/CLIP-SAFE/xschem/charge_pump_cmfb.sch
.subckt charge_pump_cmfb vd2 vd1 vref Vbias1 a_vdd a_gnd vb
*.iopin a_gnd
*.iopin a_vdd
*.ipin vd1
*.ipin vref
*.ipin vd2
*.opin vb
*.ipin Vbias1
XM122 a_gnd vd1 Vcm_det3 a_vdd sky130_fd_pr__pfet_01v8 L=0.5 W=0.5 nf=1 ad='int((nf+1)/2) * W/nf * 0.29'
+ as='int((nf+2)/2) * W/nf * 0.29' pd='2*int((nf+1)/2) * (W/nf + 0.29)' ps='2*int((nf+2)/2) * (W/nf + 0.29)'
+ nrd='0.29 / W' nrs='0.29 / W' sa=0 sb=0 sd=0 mult=1 m=1
XM123 a_gnd vd2 Vcm_det3 a_vdd sky130_fd_pr__pfet_01v8 L=0.5 W=0.5 nf=1 ad='int((nf+1)/2) * W/nf * 0.29'
+ as='int((nf+2)/2) * W/nf * 0.29' pd='2*int((nf+1)/2) * (W/nf + 0.29)' ps='2*int((nf+2)/2) * (W/nf + 0.29)'
+ nrd='0.29 / W' nrs='0.29 / W' sa=0 sb=0 sd=0 mult=1 m=1
XM124 a_vdd vd1 Vcm_det3 a_gnd sky130_fd_pr__nfet_01v8 L=0.5 W=0.5 nf=1 ad='int((nf+1)/2) * W/nf * 0.29'
+ as='int((nf+2)/2) * W/nf * 0.29' pd='2*int((nf+1)/2) * (W/nf + 0.29)' ps='2*int((nf+2)/2) * (W/nf + 0.29)'
+ nrd='0.29 / W' nrs='0.29 / W' sa=0 sb=0 sd=0 mult=1 m=1
XM125 a_vdd vd2 Vcm_det3 a_gnd sky130_fd_pr__nfet_01v8 L=0.5 W=0.5 nf=1 ad='int((nf+1)/2) * W/nf * 0.29'
+ as='int((nf+2)/2) * W/nf * 0.29' pd='2*int((nf+1)/2) * (W/nf + 0.29)' ps='2*int((nf+2)/2) * (W/nf + 0.29)'
+ nrd='0.29 / W' nrs='0.29 / W' sa=0 sb=0 sd=0 mult=1 m=1
XM128 net1 net1 a_gnd a_gnd sky130_fd_pr__nfet_01v8 L=0.5 W=0.5 nf=1 ad='int((nf+1)/2) * W/nf * 0.29'
+ as='int((nf+2)/2) * W/nf * 0.29' pd='2*int((nf+1)/2) * (W/nf + 0.29)' ps='2*int((nf+2)/2) * (W/nf + 0.29)'
+ nrd='0.29 / W' nrs='0.29 / W' sa=0 sb=0 sd=0 mult=1 m=1
XM129 vb net1 a_gnd a_gnd sky130_fd_pr__nfet_01v8 L=0.5 W=0.5 nf=1 ad='int((nf+1)/2) * W/nf * 0.29' as='int((nf+2)/2) * W/nf * 0.29'
+ pd='2*int((nf+1)/2) * (W/nf + 0.29)' ps='2*int((nf+2)/2) * (W/nf + 0.29)' nrd='0.29 / W' nrs='0.29 / W'
+ sa=0 sb=0 sd=0 mult=1 m=1
XM130 a_vdd vref Vcm3 a_gnd sky130_fd_pr__nfet_01v8 L=0.5 W=0.5 nf=1 ad='int((nf+1)/2) * W/nf * 0.29'
+ as='int((nf+2)/2) * W/nf * 0.29' pd='2*int((nf+1)/2) * (W/nf + 0.29)' ps='2*int((nf+2)/2) * (W/nf + 0.29)'
+ nrd='0.29 / W' nrs='0.29 / W' sa=0 sb=0 sd=0 mult=1 m=1
XM131 a_vdd vref Vcm3 a_gnd sky130_fd_pr__nfet_01v8 L=0.5 W=0.5 nf=1 ad='int((nf+1)/2) * W/nf * 0.29'
+ as='int((nf+2)/2) * W/nf * 0.29' pd='2*int((nf+1)/2) * (W/nf + 0.29)' ps='2*int((nf+2)/2) * (W/nf + 0.29)'
+ nrd='0.29 / W' nrs='0.29 / W' sa=0 sb=0 sd=0 mult=1 m=1
XM132 a_gnd vref Vcm3 a_vdd sky130_fd_pr__pfet_01v8 L=0.5 W=0.5 nf=1 ad='int((nf+1)/2) * W/nf * 0.29'
+ as='int((nf+2)/2) * W/nf * 0.29' pd='2*int((nf+1)/2) * (W/nf + 0.29)' ps='2*int((nf+2)/2) * (W/nf + 0.29)'
+ nrd='0.29 / W' nrs='0.29 / W' sa=0 sb=0 sd=0 mult=1 m=1
XM133 a_gnd vref Vcm3 a_vdd sky130_fd_pr__pfet_01v8 L=0.5 W=0.5 nf=1 ad='int((nf+1)/2) * W/nf * 0.29'
+ as='int((nf+2)/2) * W/nf * 0.29' pd='2*int((nf+1)/2) * (W/nf + 0.29)' ps='2*int((nf+2)/2) * (W/nf + 0.29)'
+ nrd='0.29 / W' nrs='0.29 / W' sa=0 sb=0 sd=0 mult=1 m=1
XM134 a_gnd a_gnd a_gnd a_gnd sky130_fd_pr__nfet_01v8 L=0.5 W=0.5 nf=1 ad='int((nf+1)/2) * W/nf * 0.29'
+ as='int((nf+2)/2) * W/nf * 0.29' pd='2*int((nf+1)/2) * (W/nf + 0.29)' ps='2*int((nf+2)/2) * (W/nf + 0.29)'
+ nrd='0.29 / W' nrs='0.29 / W' sa=0 sb=0 sd=0 mult=1 m=1
XM135 a_gnd a_gnd a_gnd a_gnd sky130_fd_pr__nfet_01v8 L=0.5 W=0.5 nf=1 ad='int((nf+1)/2) * W/nf * 0.29'
+ as='int((nf+2)/2) * W/nf * 0.29' pd='2*int((nf+1)/2) * (W/nf + 0.29)' ps='2*int((nf+2)/2) * (W/nf + 0.29)'
+ nrd='0.29 / W' nrs='0.29 / W' sa=0 sb=0 sd=0 mult=1 m=1
XM138 net2 Vbiasp a_vdd a_vdd sky130_fd_pr__pfet_01v8 L=0.5 W=1 nf=1 ad='int((nf+1)/2) * W/nf * 0.29'
+ as='int((nf+2)/2) * W/nf * 0.29' pd='2*int((nf+1)/2) * (W/nf + 0.29)' ps='2*int((nf+2)/2) * (W/nf + 0.29)'
+ nrd='0.29 / W' nrs='0.29 / W' sa=0 sb=0 sd=0 mult=1 m=1
XM139 Vbiasp Vbiasp a_vdd a_vdd sky130_fd_pr__pfet_01v8 L=0.5 W=1 nf=1 ad='int((nf+1)/2) * W/nf * 0.29'
+ as='int((nf+2)/2) * W/nf * 0.29' pd='2*int((nf+1)/2) * (W/nf + 0.29)' ps='2*int((nf+2)/2) * (W/nf + 0.29)'
+ nrd='0.29 / W' nrs='0.29 / W' sa=0 sb=0 sd=0 mult=1 m=1
XM140 Vbiasp Vbias1 a_gnd a_gnd sky130_fd_pr__nfet_01v8 L=0.5 W=2 nf=1 ad='int((nf+1)/2) * W/nf * 0.29'
+ as='int((nf+2)/2) * W/nf * 0.29' pd='2*int((nf+1)/2) * (W/nf + 0.29)' ps='2*int((nf+2)/2) * (W/nf + 0.29)'
+ nrd='0.29 / W' nrs='0.29 / W' sa=0 sb=0 sd=0 mult=1 m=1
XM1 net1 Vcm_det3 net2 a_vdd sky130_fd_pr__pfet_01v8_lvt L=0.5 W=2 nf=1 ad='int((nf+1)/2) * W/nf * 0.29'
+ as='int((nf+2)/2) * W/nf * 0.29' pd='2*int((nf+1)/2) * (W/nf + 0.29)' ps='2*int((nf+2)/2) * (W/nf + 0.29)'
+ nrd='0.29 / W' nrs='0.29 / W' sa=0 sb=0 sd=0 mult=1 m=1
XM2 vb Vcm3 net2 a_vdd sky130_fd_pr__pfet_01v8_lvt L=0.5 W=2 nf=1 ad='int((nf+1)/2) * W/nf * 0.29' as='int((nf+2)/2) * W/nf * 0.29'
+ pd='2*int((nf+1)/2) * (W/nf + 0.29)' ps='2*int((nf+2)/2) * (W/nf + 0.29)' nrd='0.29 / W' nrs='0.29 / W'
+ sa=0 sb=0 sd=0 mult=1 m=1
XM3 a_vdd a_vdd a_vdd a_vdd sky130_fd_pr__pfet_01v8_lvt L=0.5 W=2 nf=1 ad='int((nf+1)/2) * W/nf * 0.29'
+ as='int((nf+2)/2) * W/nf * 0.29' pd='2*int((nf+1)/2) * (W/nf + 0.29)' ps='2*int((nf+2)/2) * (W/nf + 0.29)'
+ nrd='0.29 / W' nrs='0.29 / W' sa=0 sb=0 sd=0 mult=1 m=1
XM4 a_vdd a_vdd a_vdd a_vdd sky130_fd_pr__pfet_01v8_lvt L=0.5 W=2 nf=1 ad='int((nf+1)/2) * W/nf * 0.29'
+ as='int((nf+2)/2) * W/nf * 0.29' pd='2*int((nf+1)/2) * (W/nf + 0.29)' ps='2*int((nf+2)/2) * (W/nf + 0.29)'
+ nrd='0.29 / W' nrs='0.29 / W' sa=0 sb=0 sd=0 mult=1 m=1
XM5 a_gnd a_vdd a_gnd a_gnd sky130_fd_pr__nfet_01v8 L=0.15 W=28.14 nf=1 ad='int((nf+1)/2) * W/nf * 0.29'
+ as='int((nf+2)/2) * W/nf * 0.29' pd='2*int((nf+1)/2) * (W/nf + 0.29)' ps='2*int((nf+2)/2) * (W/nf + 0.29)'
+ nrd='0.29 / W' nrs='0.29 / W' sa=0 sb=0 sd=0 mult=1 m=1
.ends


* expanding   symbol:  reference_0_9.sym # of pins=3
** sym_path: /home/ganga/CLIP-SAFE/xschem/reference_0_9.sym
** sch_path: /home/ganga/CLIP-SAFE/xschem/reference_0_9.sch
.subckt reference_0_9 a_gnd a_vdd vref_0_9
*.iopin a_vdd
*.iopin a_gnd
*.opin vref_0_9
XM144 vref_0_9 vref_0_9 a_vdd a_vdd sky130_fd_pr__pfet_01v8_lvt L=4 W=1 nf=1 ad='int((nf+1)/2) * W/nf * 0.29'
+ as='int((nf+2)/2) * W/nf * 0.29' pd='2*int((nf+1)/2) * (W/nf + 0.29)' ps='2*int((nf+2)/2) * (W/nf + 0.29)'
+ nrd='0.29 / W' nrs='0.29 / W' sa=0 sb=0 sd=0 mult=1 m=1
XM146 a_gnd a_gnd vref_0_9 vref_0_9 sky130_fd_pr__pfet_01v8_lvt L=4 W=1 nf=1 ad='int((nf+1)/2) * W/nf * 0.29'
+ as='int((nf+2)/2) * W/nf * 0.29' pd='2*int((nf+1)/2) * (W/nf + 0.29)' ps='2*int((nf+2)/2) * (W/nf + 0.29)'
+ nrd='0.29 / W' nrs='0.29 / W' sa=0 sb=0 sd=0 mult=1 m=1
.ends


* expanding   symbol:  window_comparator.sym # of pins=10
** sym_path: /home/ganga/CLIP-SAFE/xschem/window_comparator.sym
** sch_path: /home/ganga/CLIP-SAFE/xschem/window_comparator.sch
.subckt window_comparator Vdd gnd clk vo1 Q1 vo2 Vdd_ref en Q2 gnd_ref
*.opin Q1
*.opin Q2
*.ipin vo1
*.ipin vo2
*.ipin clk
*.iopin gnd_ref
*.iopin Vdd_ref
*.iopin Vdd
*.iopin gnd
*.opin en
x1 Vdd gnd clk vo1 vo2 Q1 net1 net2 sense_amp_comparator
x2 Vdd gnd clk vo1 vo2 Q2 net2 net1 sense_amp_comparator
x3 gnd_ref net1 Vdd_ref net2 reference
x4 Q1 Q2 gnd gnd Vdd Vdd en sky130_fd_sc_hd__xnor2_4
.ends


* expanding   symbol:  source_follower_buffer.sym # of pins=5
** sym_path: /home/ganga/CLIP-SAFE/xschem/source_follower_buffer.sym
** sch_path: /home/ganga/CLIP-SAFE/xschem/source_follower_buffer.sch
.subckt source_follower_buffer vcp_in a_gnd vin1 a_vdd vin2
*.ipin vin1
*.iopin a_vdd
*.iopin a_gnd
*.ipin vin2
*.opin vcp_in
XM152 a_vdd vin1 vcp_in a_gnd sky130_fd_pr__nfet_01v8 L=0.5 W=0.5 nf=1 ad='int((nf+1)/2) * W/nf * 0.29'
+ as='int((nf+2)/2) * W/nf * 0.29' pd='2*int((nf+1)/2) * (W/nf + 0.29)' ps='2*int((nf+2)/2) * (W/nf + 0.29)'
+ nrd='0.29 / W' nrs='0.29 / W' sa=0 sb=0 sd=0 mult=1 m=1
XM153 a_vdd vin2 vcp_in a_gnd sky130_fd_pr__nfet_01v8 L=0.5 W=0.5 nf=1 ad='int((nf+1)/2) * W/nf * 0.29'
+ as='int((nf+2)/2) * W/nf * 0.29' pd='2*int((nf+1)/2) * (W/nf + 0.29)' ps='2*int((nf+2)/2) * (W/nf + 0.29)'
+ nrd='0.29 / W' nrs='0.29 / W' sa=0 sb=0 sd=0 mult=1 m=1
XM154 a_gnd vin1 vcp_in a_vdd sky130_fd_pr__pfet_01v8_lvt L=0.5 W=0.5 nf=1 ad='int((nf+1)/2) * W/nf * 0.29'
+ as='int((nf+2)/2) * W/nf * 0.29' pd='2*int((nf+1)/2) * (W/nf + 0.29)' ps='2*int((nf+2)/2) * (W/nf + 0.29)'
+ nrd='0.29 / W' nrs='0.29 / W' sa=0 sb=0 sd=0 mult=1 m=1
XM155 a_gnd vin2 vcp_in a_vdd sky130_fd_pr__pfet_01v8_lvt L=0.5 W=0.5 nf=1 ad='int((nf+1)/2) * W/nf * 0.29'
+ as='int((nf+2)/2) * W/nf * 0.29' pd='2*int((nf+1)/2) * (W/nf + 0.29)' ps='2*int((nf+2)/2) * (W/nf + 0.29)'
+ nrd='0.29 / W' nrs='0.29 / W' sa=0 sb=0 sd=0 mult=1 m=1
.ends


* expanding   symbol:  open_loop.sym # of pins=10
** sym_path: /home/ganga/CLIP-SAFE/xschem/open_loop.sym
** sch_path: /home/ganga/CLIP-SAFE/xschem/open_loop.sch
.subckt open_loop vsource vdrain2 vbias_cmfb vdrain1 Vref vint+ Vdd vint- gnd ibias_sgfet
*.iopin gnd
*.iopin Vdd
*.ipin Vref
*.iopin vbias_cmfb
*.iopin vint+
*.iopin vint-
*.iopin ibias_sgfet
*.iopin vsource
*.iopin vdrain2
*.iopin vdrain1
x1 Vdd gnd Vdd vsource vdrain1 vdrain2 Vref vbias_cmfb ibias_sgfet first_stage_differential_amp
x2 vint+ Vdd Vdd vint- gnd vdrain1 Vref vdrain2 vbias_cmfb integrator_full
XM1 vbias_cmfb vbias_cmfb gnd gnd sky130_fd_pr__nfet_01v8 L=0.5 W=1 nf=1 ad='int((nf+1)/2) * W/nf * 0.29'
+ as='int((nf+2)/2) * W/nf * 0.29' pd='2*int((nf+1)/2) * (W/nf + 0.29)' ps='2*int((nf+2)/2) * (W/nf + 0.29)'
+ nrd='0.29 / W' nrs='0.29 / W' sa=0 sb=0 sd=0 mult=1 m=1
XM2 gnd Vdd gnd gnd sky130_fd_pr__nfet_01v8 L=0.15 W=17.64 nf=1 ad='int((nf+1)/2) * W/nf * 0.29' as='int((nf+2)/2) * W/nf * 0.29'
+ pd='2*int((nf+1)/2) * (W/nf + 0.29)' ps='2*int((nf+2)/2) * (W/nf + 0.29)' nrd='0.29 / W' nrs='0.29 / W'
+ sa=0 sb=0 sd=0 mult=1 m=1
XM3 gnd vbias_cmfb gnd gnd sky130_fd_pr__nfet_01v8 L=0.15 W=5.04 nf=1 ad='int((nf+1)/2) * W/nf * 0.29'
+ as='int((nf+2)/2) * W/nf * 0.29' pd='2*int((nf+1)/2) * (W/nf + 0.29)' ps='2*int((nf+2)/2) * (W/nf + 0.29)'
+ nrd='0.29 / W' nrs='0.29 / W' sa=0 sb=0 sd=0 mult=1 m=1
XM4 Vdd gnd Vdd Vdd sky130_fd_pr__pfet_01v8 L=0.15 W=25.2 nf=1 ad='int((nf+1)/2) * W/nf * 0.29' as='int((nf+2)/2) * W/nf * 0.29'
+ pd='2*int((nf+1)/2) * (W/nf + 0.29)' ps='2*int((nf+2)/2) * (W/nf + 0.29)' nrd='0.29 / W' nrs='0.29 / W'
+ sa=0 sb=0 sd=0 mult=1 m=1
.ends


* expanding   symbol:  reference.sym # of pins=4
** sym_path: /home/ganga/CLIP-SAFE/xschem/reference.sym
** sch_path: /home/ganga/CLIP-SAFE/xschem/reference.sch
.subckt reference a_gnd vref1 a_vdd vref2
*.iopin a_vdd
*.iopin a_gnd
*.opin vref1
*.opin vref2
XM5 vref1 vref1 a_vdd a_vdd sky130_fd_pr__pfet_01v8_lvt L=4 W=1 nf=1 ad='int((nf+1)/2) * W/nf * 0.29'
+ as='int((nf+2)/2) * W/nf * 0.29' pd='2*int((nf+1)/2) * (W/nf + 0.29)' ps='2*int((nf+2)/2) * (W/nf + 0.29)'
+ nrd='0.29 / W' nrs='0.29 / W' sa=0 sb=0 sd=0 mult=1 m=1
XM6 vref2 vref2 vref1 vref1 sky130_fd_pr__pfet_01v8_lvt L=0.5 W=1 nf=1 ad='int((nf+1)/2) * W/nf * 0.29'
+ as='int((nf+2)/2) * W/nf * 0.29' pd='2*int((nf+1)/2) * (W/nf + 0.29)' ps='2*int((nf+2)/2) * (W/nf + 0.29)'
+ nrd='0.29 / W' nrs='0.29 / W' sa=0 sb=0 sd=0 mult=1 m=1
XM7 a_gnd a_gnd vref2 vref2 sky130_fd_pr__pfet_01v8_lvt L=4 W=1 nf=1 ad='int((nf+1)/2) * W/nf * 0.29'
+ as='int((nf+2)/2) * W/nf * 0.29' pd='2*int((nf+1)/2) * (W/nf + 0.29)' ps='2*int((nf+2)/2) * (W/nf + 0.29)'
+ nrd='0.29 / W' nrs='0.29 / W' sa=0 sb=0 sd=0 mult=1 m=1
.ends


* expanding   symbol:  reconfigurable_charge_pump.sym # of pins=13
** sym_path: /home/ganga/CLIP-SAFE/xschem/reconfigurable_charge_pump.sym
** sch_path: /home/ganga/CLIP-SAFE/xschem/reconfigurable_charge_pump.sch
.subckt reconfigurable_charge_pump vin clk_in vdd gnd in1 in2 in3 in4 in5 in6 in7 in8 out
*.ipin in1
*.ipin in2
*.ipin in3
*.ipin in4
*.ipin in5
*.ipin in6
*.ipin in7
*.ipin in8
*.iopin gnd
*.iopin vdd
*.ipin vin
*.ipin clk_in
*.opin out
x1 vin vdd clk_in gnd in1 net1 in2 in3 in4 in5 in6 in7 in8 net2 cp1_buffer
x3 net3 vdd net4 gnd in1 net5 in2 in3 in4 in5 in6 in7 in8 net6 cp1_buffer
x5 s4 vdd net7 gnd in1 s5 in2 in3 in4 in5 in6 in7 in8 net17 cp1_buffer
x6 s4 s5 vdd net8 gnd in8 s6 in7 in6 in5 in4 in3 in2 in1 net12 cp2_buffer
x7 s5 s6 vdd net12 gnd in8 s7 in7 in6 in5 in4 in3 in2 in1 net11 cp2_buffer_reverse
x8 s6 s7 vdd net11 gnd in8 s8 in7 in6 in5 in4 in3 in2 in1 net10 cp2_buffer
x9 s7 s8 vdd net10 gnd in8 s9 in7 in6 in5 in4 in3 in2 in1 net9 cp2_buffer_reverse
x10 s8 s9 vdd net9 gnd in8 s10 in7 in6 in5 in4 in3 in2 in1 net18 cp2_buffer
x11 s8 s10 vdd clk_in gnd in1 s11 in2 in3 in4 in5 in6 in7 in8 net13 cp2_buffer
x12 s10 s11 vdd net13 gnd in1 s12 in2 in3 in4 in5 in6 in7 in8 net14 cp2_buffer_reverse
x13 s11 s12 vdd net14 gnd in1 s13 in2 in3 in4 in5 in6 in7 in8 net15 cp2_buffer
x14 s12 s13 vdd net15 gnd in1 s14 in2 in3 in4 in5 in6 in7 in8 net16 cp2_buffer_reverse
x15 s13 s14 vdd net16 gnd in1 out in2 in3 in4 in5 in6 in7 in8 net8 cp2_buffer
x2 net1 vdd net2 gnd in1 net3 in2 in3 in4 in5 in6 in7 in8 net4 cp1_buffer_reverse
x4 net5 vdd net6 gnd in1 s4 in2 in3 in4 in5 in6 in7 in8 net7 cp1_buffer_reverse
.ends


* expanding   symbol:  sense_amp_comparator.sym # of pins=8
** sym_path: /home/ganga/CLIP-SAFE/xschem/sense_amp_comparator.sym
** sch_path: /home/ganga/CLIP-SAFE/xschem/sense_amp_comparator.sch
.subckt sense_amp_comparator Vdd gnd clk vo1 vo2 Q Vc- Vc+
*.iopin gnd
*.iopin Vdd
*.ipin clk
*.ipin vo1
*.ipin vo2
*.ipin Vc-
*.ipin Vc+
*.opin Q
x1 Vdd gnd clk vo1 vo2 Vc- Vc+ Vo+ Vo- comparator_lvs
x2 Vdd gnd Q net1 Vo1+ Vo1- Vo+ Vo- latch_lvs
x3 Vdd gnd Vo+ Vo1+ comparator_inv
x4 Vdd gnd Vo- Vo1- comparator_inv
.ends


* expanding   symbol:  first_stage_differential_amp.sym # of pins=9
** sym_path: /home/ganga/CLIP-SAFE/xschem/first_stage_differential_amp.sym
** sch_path: /home/ganga/CLIP-SAFE/xschem/first_stage_differential_amp.sch
.subckt first_stage_differential_amp Vdd gnd Vdd1 Vsource Vdrain2 Vdrain1 Vref vbias_cmfb
+ ibias_sgfet
*.iopin gnd
*.iopin Vdd
*.ipin Vref
*.iopin ibias_sgfet
*.iopin vbias_cmfb
*.iopin Vdd1
*.iopin Vsource
*.iopin Vdrain1
*.iopin Vdrain2
x1 Vbp Vdd gnd Vdrain1 Vdrain2 Vref vbias_cmfb cmfb_lvs
XM26 ibias_sgfet ibias_sgfet gnd gnd sky130_fd_pr__nfet_01v8 L=0.5 W=1 nf=1 ad='int((nf+1)/2) * W/nf * 0.29'
+ as='int((nf+2)/2) * W/nf * 0.29' pd='2*int((nf+1)/2) * (W/nf + 0.29)' ps='2*int((nf+2)/2) * (W/nf + 0.29)'
+ nrd='0.29 / W' nrs='0.29 / W' sa=0 sb=0 sd=0 mult=1 m=1
XM27 Vdrain1 Vbp Vdd1 Vdd1 sky130_fd_pr__pfet_01v8 L=0.5 W=0.5 nf=1 ad='int((nf+1)/2) * W/nf * 0.29'
+ as='int((nf+2)/2) * W/nf * 0.29' pd='2*int((nf+1)/2) * (W/nf + 0.29)' ps='2*int((nf+2)/2) * (W/nf + 0.29)'
+ nrd='0.29 / W' nrs='0.29 / W' sa=0 sb=0 sd=0 mult=1 m=1
XM28 Vdrain2 Vbp Vdd1 Vdd1 sky130_fd_pr__pfet_01v8 L=0.5 W=0.5 nf=1 ad='int((nf+1)/2) * W/nf * 0.29'
+ as='int((nf+2)/2) * W/nf * 0.29' pd='2*int((nf+1)/2) * (W/nf + 0.29)' ps='2*int((nf+2)/2) * (W/nf + 0.29)'
+ nrd='0.29 / W' nrs='0.29 / W' sa=0 sb=0 sd=0 mult=1 m=1
XM29 Vdd1 Vdd1 Vdd1 Vdd1 sky130_fd_pr__pfet_01v8 L=0.5 W=0.5 nf=1 ad='int((nf+1)/2) * W/nf * 0.29' as='int((nf+2)/2) * W/nf * 0.29'
+ pd='2*int((nf+1)/2) * (W/nf + 0.29)' ps='2*int((nf+2)/2) * (W/nf + 0.29)' nrd='0.29 / W' nrs='0.29 / W'
+ sa=0 sb=0 sd=0 mult=1 m=1
XM30 Vdd1 Vdd1 Vdd1 Vdd1 sky130_fd_pr__pfet_01v8 L=0.5 W=0.5 nf=1 ad='int((nf+1)/2) * W/nf * 0.29' as='int((nf+2)/2) * W/nf * 0.29'
+ pd='2*int((nf+1)/2) * (W/nf + 0.29)' ps='2*int((nf+2)/2) * (W/nf + 0.29)' nrd='0.29 / W' nrs='0.29 / W'
+ sa=0 sb=0 sd=0 mult=1 m=1
XM31 Vsoruce ibias_sgfet gnd gnd sky130_fd_pr__nfet_01v8 L=0.5 W=1 nf=1 ad='int((nf+1)/2) * W/nf * 0.29'
+ as='int((nf+2)/2) * W/nf * 0.29' pd='2*int((nf+1)/2) * (W/nf + 0.29)' ps='2*int((nf+2)/2) * (W/nf + 0.29)'
+ nrd='0.29 / W' nrs='0.29 / W' sa=0 sb=0 sd=0 mult=1 m=1
XC1 Vdd1 Vbp sky130_fd_pr__cap_mim_m3_1 W=10 L=10 MF=1 m=1
.ends


* expanding   symbol:  integrator_full.sym # of pins=9
** sym_path: /home/ganga/CLIP-SAFE/xschem/integrator_full.sym
** sch_path: /home/ganga/CLIP-SAFE/xschem/integrator_full.sch
.subckt integrator_full vo1 Vdd Vdd1 vo2 gnd vin1 Vref vin2 Vbias
*.ipin vin1
*.ipin vin2
*.iopin gnd
*.iopin Vdd
*.opin vo1
*.opin vo2
*.ipin Vref
*.ipin Vbias
*.iopin Vdd1
x1 Vdd1 gnd net1 vin1 vin2 vo1 vo2 Vbias integrator_lvs
x2 net1 Vdd gnd vo1 vo2 Vref Vbias cmfb_lvs
.ends


* expanding   symbol:  cp1_buffer.sym # of pins=14
** sym_path: /home/ganga/CLIP-SAFE/xschem/cp1_buffer.sym
** sch_path: /home/ganga/CLIP-SAFE/xschem/cp1_buffer.sch
.subckt cp1_buffer vin vdd clk_in gnd in1 out in2 in3 in4 in5 in6 in7 in8 clk_out
*.iopin gnd
*.iopin vdd
*.ipin vin
*.opin out
*.ipin clk_in
*.ipin in1
*.ipin in2
*.ipin in3
*.ipin in4
*.ipin in5
*.ipin in6
*.ipin in7
*.ipin in8
*.opin clk_out
x1 vin vdd gnd in1 in2 in3 in4 in5 in6 in7 in8 clk_out out cp1
x16 gnd vdd clk_in net1 buffer_digital
x20 gnd vdd net1 clk_out buffer_digital
XM1 vdd gnd vdd vdd sky130_fd_pr__pfet_01v8 L=0.15 W=42 nf=1 ad='int((nf+1)/2) * W/nf * 0.29' as='int((nf+2)/2) * W/nf * 0.29'
+ pd='2*int((nf+1)/2) * (W/nf + 0.29)' ps='2*int((nf+2)/2) * (W/nf + 0.29)' nrd='0.29 / W' nrs='0.29 / W'
+ sa=0 sb=0 sd=0 mult=1 m=1
XM5 gnd vdd gnd gnd sky130_fd_pr__nfet_01v8 L=0.15 W=33.6 nf=1 ad='int((nf+1)/2) * W/nf * 0.29' as='int((nf+2)/2) * W/nf * 0.29'
+ pd='2*int((nf+1)/2) * (W/nf + 0.29)' ps='2*int((nf+2)/2) * (W/nf + 0.29)' nrd='0.29 / W' nrs='0.29 / W'
+ sa=0 sb=0 sd=0 mult=1 m=1
XM10 gnd vdd gnd gnd sky130_fd_pr__nfet_01v8 L=0.15 W=22.6 nf=1 ad='int((nf+1)/2) * W/nf * 0.29' as='int((nf+2)/2) * W/nf * 0.29'
+ pd='2*int((nf+1)/2) * (W/nf + 0.29)' ps='2*int((nf+2)/2) * (W/nf + 0.29)' nrd='0.29 / W' nrs='0.29 / W'
+ sa=0 sb=0 sd=0 mult=1 m=1
XM2 vdd gnd vdd vdd sky130_fd_pr__pfet_01v8 L=0.15 W=42 nf=1 ad='int((nf+1)/2) * W/nf * 0.29' as='int((nf+2)/2) * W/nf * 0.29'
+ pd='2*int((nf+1)/2) * (W/nf + 0.29)' ps='2*int((nf+2)/2) * (W/nf + 0.29)' nrd='0.29 / W' nrs='0.29 / W'
+ sa=0 sb=0 sd=0 mult=1 m=1
.ends


* expanding   symbol:  cp2_buffer.sym # of pins=15
** sym_path: /home/ganga/CLIP-SAFE/xschem/cp2_buffer.sym
** sch_path: /home/ganga/CLIP-SAFE/xschem/cp2_buffer.sch
.subckt cp2_buffer vs vin vdd clk_in gnd in1 out in2 in3 in4 in5 in6 in7 in8 clk_out
*.iopin gnd
*.iopin vdd
*.ipin vin
*.opin out
*.ipin clk_in
*.ipin in1
*.ipin in2
*.ipin in3
*.ipin in4
*.ipin in5
*.ipin in6
*.ipin in7
*.ipin in8
*.ipin vs
*.opin clk_out
x16 gnd vdd clk_in net1 buffer_digital
x20 gnd vdd net1 clk_out buffer_digital
x1 vs vin vdd gnd in1 in2 in3 in4 in5 in6 in7 in8 clk_out out cp2
XM5 gnd vdd gnd gnd sky130_fd_pr__nfet_01v8 L=0.15 W=25.2 nf=1 ad='int((nf+1)/2) * W/nf * 0.29' as='int((nf+2)/2) * W/nf * 0.29'
+ pd='2*int((nf+1)/2) * (W/nf + 0.29)' ps='2*int((nf+2)/2) * (W/nf + 0.29)' nrd='0.29 / W' nrs='0.29 / W'
+ sa=0 sb=0 sd=0 mult=1 m=1
XM7 vdd gnd vdd vdd sky130_fd_pr__pfet_01v8 L=0.15 W=29.2 nf=1 ad='int((nf+1)/2) * W/nf * 0.29' as='int((nf+2)/2) * W/nf * 0.29'
+ pd='2*int((nf+1)/2) * (W/nf + 0.29)' ps='2*int((nf+2)/2) * (W/nf + 0.29)' nrd='0.29 / W' nrs='0.29 / W'
+ sa=0 sb=0 sd=0 mult=1 m=1
XM8 vdd gnd vdd vdd sky130_fd_pr__pfet_01v8 L=0.15 W=25.2 nf=1 ad='int((nf+1)/2) * W/nf * 0.29' as='int((nf+2)/2) * W/nf * 0.29'
+ pd='2*int((nf+1)/2) * (W/nf + 0.29)' ps='2*int((nf+2)/2) * (W/nf + 0.29)' nrd='0.29 / W' nrs='0.29 / W'
+ sa=0 sb=0 sd=0 mult=1 m=1
.ends


* expanding   symbol:  cp2_buffer_reverse.sym # of pins=15
** sym_path: /home/ganga/CLIP-SAFE/xschem/cp2_buffer_reverse.sym
** sch_path: /home/ganga/CLIP-SAFE/xschem/cp2_buffer_reverse.sch
.subckt cp2_buffer_reverse vs vin vdd clk_in gnd in1 out in2 in3 in4 in5 in6 in7 in8 clk_out
*.iopin gnd
*.iopin vdd
*.ipin vin
*.opin out
*.ipin clk_in
*.ipin in1
*.ipin in2
*.ipin in3
*.ipin in4
*.ipin in5
*.ipin in6
*.ipin in7
*.ipin in8
*.ipin vs
*.opin clk_out
x16 gnd vdd clk_in net1 buffer_digital
x20 gnd vdd net1 clk_out buffer_digital
x1 vs vin vdd gnd in1 in2 in3 in4 in5 in6 in7 in8 clk_out out cp2_reverse
XM5 gnd vdd gnd gnd sky130_fd_pr__nfet_01v8 L=0.15 W=42 nf=1 ad='int((nf+1)/2) * W/nf * 0.29' as='int((nf+2)/2) * W/nf * 0.29'
+ pd='2*int((nf+1)/2) * (W/nf + 0.29)' ps='2*int((nf+2)/2) * (W/nf + 0.29)' nrd='0.29 / W' nrs='0.29 / W'
+ sa=0 sb=0 sd=0 mult=1 m=1
XM8 vdd gnd vdd vdd sky130_fd_pr__pfet_01v8 L=0.15 W=42 nf=1 ad='int((nf+1)/2) * W/nf * 0.29' as='int((nf+2)/2) * W/nf * 0.29'
+ pd='2*int((nf+1)/2) * (W/nf + 0.29)' ps='2*int((nf+2)/2) * (W/nf + 0.29)' nrd='0.29 / W' nrs='0.29 / W'
+ sa=0 sb=0 sd=0 mult=1 m=1
.ends


* expanding   symbol:  cp1_buffer_reverse.sym # of pins=14
** sym_path: /home/ganga/CLIP-SAFE/xschem/cp1_buffer_reverse.sym
** sch_path: /home/ganga/CLIP-SAFE/xschem/cp1_buffer_reverse.sch
.subckt cp1_buffer_reverse vin vdd clk_in gnd in1 out in2 in3 in4 in5 in6 in7 in8 clk_out
*.iopin gnd
*.iopin vdd
*.ipin vin
*.opin out
*.ipin clk_in
*.ipin in1
*.ipin in2
*.ipin in3
*.ipin in4
*.ipin in5
*.ipin in6
*.ipin in7
*.ipin in8
*.opin clk_out
x1 vin vdd gnd in1 in2 in3 in4 in5 in6 in7 in8 clk_out out cp1_reverse
x16 gnd vdd clk_in net1 buffer_digital
x20 gnd vdd net1 clk_out buffer_digital
XM5 gnd vdd gnd gnd sky130_fd_pr__nfet_01v8 L=0.15 W=29.4 nf=1 ad='int((nf+1)/2) * W/nf * 0.29' as='int((nf+2)/2) * W/nf * 0.29'
+ pd='2*int((nf+1)/2) * (W/nf + 0.29)' ps='2*int((nf+2)/2) * (W/nf + 0.29)' nrd='0.29 / W' nrs='0.29 / W'
+ sa=0 sb=0 sd=0 mult=1 m=1
XM6 gnd vdd gnd gnd sky130_fd_pr__nfet_01v8 L=0.15 W=25.2 nf=1 ad='int((nf+1)/2) * W/nf * 0.29' as='int((nf+2)/2) * W/nf * 0.29'
+ pd='2*int((nf+1)/2) * (W/nf + 0.29)' ps='2*int((nf+2)/2) * (W/nf + 0.29)' nrd='0.29 / W' nrs='0.29 / W'
+ sa=0 sb=0 sd=0 mult=1 m=1
XM7 vdd gnd vdd vdd sky130_fd_pr__pfet_01v8 L=0.15 W=33.6 nf=1 ad='int((nf+1)/2) * W/nf * 0.29' as='int((nf+2)/2) * W/nf * 0.29'
+ pd='2*int((nf+1)/2) * (W/nf + 0.29)' ps='2*int((nf+2)/2) * (W/nf + 0.29)' nrd='0.29 / W' nrs='0.29 / W'
+ sa=0 sb=0 sd=0 mult=1 m=1
XM8 vdd gnd vdd vdd sky130_fd_pr__pfet_01v8 L=0.15 W=29.4 nf=1 ad='int((nf+1)/2) * W/nf * 0.29' as='int((nf+2)/2) * W/nf * 0.29'
+ pd='2*int((nf+1)/2) * (W/nf + 0.29)' ps='2*int((nf+2)/2) * (W/nf + 0.29)' nrd='0.29 / W' nrs='0.29 / W'
+ sa=0 sb=0 sd=0 mult=1 m=1
.ends


* expanding   symbol:  comparator_lvs.sym # of pins=9
** sym_path: /home/ganga/CLIP-SAFE/xschem/comparator_lvs.sym
** sch_path: /home/ganga/CLIP-SAFE/xschem/comparator_lvs.sch
.subckt comparator_lvs Vdd gnd clk vo1 vo2 Vc- Vc+ Vo+ Vo-
*.iopin gnd
*.iopin Vdd
*.ipin vo1
*.ipin vo2
*.ipin Vc-
*.ipin Vc+
*.opin Vo+
*.opin Vo-
*.ipin clk
XM90 net1 vo1 net3 gnd sky130_fd_pr__nfet_01v8 L=0.5 W=1 nf=1 ad='int((nf+1)/2) * W/nf * 0.29' as='int((nf+2)/2) * W/nf * 0.29'
+ pd='2*int((nf+1)/2) * (W/nf + 0.29)' ps='2*int((nf+2)/2) * (W/nf + 0.29)' nrd='0.29 / W' nrs='0.29 / W'
+ sa=0 sb=0 sd=0 mult=1 m=1
XM91 net1 Vc+ net3 gnd sky130_fd_pr__nfet_01v8 L=0.5 W=1 nf=1 ad='int((nf+1)/2) * W/nf * 0.29' as='int((nf+2)/2) * W/nf * 0.29'
+ pd='2*int((nf+1)/2) * (W/nf + 0.29)' ps='2*int((nf+2)/2) * (W/nf + 0.29)' nrd='0.29 / W' nrs='0.29 / W'
+ sa=0 sb=0 sd=0 mult=1 m=1
XM92 net2 Vc- net3 gnd sky130_fd_pr__nfet_01v8 L=0.5 W=1 nf=1 ad='int((nf+1)/2) * W/nf * 0.29' as='int((nf+2)/2) * W/nf * 0.29'
+ pd='2*int((nf+1)/2) * (W/nf + 0.29)' ps='2*int((nf+2)/2) * (W/nf + 0.29)' nrd='0.29 / W' nrs='0.29 / W'
+ sa=0 sb=0 sd=0 mult=1 m=1
XM93 net3 clk gnd gnd sky130_fd_pr__nfet_01v8 L=0.5 W=1 nf=1 ad='int((nf+1)/2) * W/nf * 0.29' as='int((nf+2)/2) * W/nf * 0.29'
+ pd='2*int((nf+1)/2) * (W/nf + 0.29)' ps='2*int((nf+2)/2) * (W/nf + 0.29)' nrd='0.29 / W' nrs='0.29 / W'
+ sa=0 sb=0 sd=0 mult=1 m=1
XM94 Vo+ clk Vdd Vdd sky130_fd_pr__pfet_01v8 L=0.5 W=1 nf=1 ad='int((nf+1)/2) * W/nf * 0.29' as='int((nf+2)/2) * W/nf * 0.29'
+ pd='2*int((nf+1)/2) * (W/nf + 0.29)' ps='2*int((nf+2)/2) * (W/nf + 0.29)' nrd='0.29 / W' nrs='0.29 / W'
+ sa=0 sb=0 sd=0 mult=1 m=1
XM95 Vo- clk Vdd Vdd sky130_fd_pr__pfet_01v8 L=0.5 W=1 nf=1 ad='int((nf+1)/2) * W/nf * 0.29' as='int((nf+2)/2) * W/nf * 0.29'
+ pd='2*int((nf+1)/2) * (W/nf + 0.29)' ps='2*int((nf+2)/2) * (W/nf + 0.29)' nrd='0.29 / W' nrs='0.29 / W'
+ sa=0 sb=0 sd=0 mult=1 m=1
XM96 Vo+ Vo- Vdd Vdd sky130_fd_pr__pfet_01v8 L=0.5 W=1 nf=1 ad='int((nf+1)/2) * W/nf * 0.29' as='int((nf+2)/2) * W/nf * 0.29'
+ pd='2*int((nf+1)/2) * (W/nf + 0.29)' ps='2*int((nf+2)/2) * (W/nf + 0.29)' nrd='0.29 / W' nrs='0.29 / W'
+ sa=0 sb=0 sd=0 mult=1 m=1
XM97 Vo- Vo+ Vdd Vdd sky130_fd_pr__pfet_01v8 L=0.5 W=1 nf=1 ad='int((nf+1)/2) * W/nf * 0.29' as='int((nf+2)/2) * W/nf * 0.29'
+ pd='2*int((nf+1)/2) * (W/nf + 0.29)' ps='2*int((nf+2)/2) * (W/nf + 0.29)' nrd='0.29 / W' nrs='0.29 / W'
+ sa=0 sb=0 sd=0 mult=1 m=1
XM98 Vo+ Vo- net1 gnd sky130_fd_pr__nfet_01v8 L=0.5 W=1 nf=1 ad='int((nf+1)/2) * W/nf * 0.29' as='int((nf+2)/2) * W/nf * 0.29'
+ pd='2*int((nf+1)/2) * (W/nf + 0.29)' ps='2*int((nf+2)/2) * (W/nf + 0.29)' nrd='0.29 / W' nrs='0.29 / W'
+ sa=0 sb=0 sd=0 mult=1 m=1
XM99 Vo- Vo+ net2 gnd sky130_fd_pr__nfet_01v8 L=0.5 W=1 nf=1 ad='int((nf+1)/2) * W/nf * 0.29' as='int((nf+2)/2) * W/nf * 0.29'
+ pd='2*int((nf+1)/2) * (W/nf + 0.29)' ps='2*int((nf+2)/2) * (W/nf + 0.29)' nrd='0.29 / W' nrs='0.29 / W'
+ sa=0 sb=0 sd=0 mult=1 m=1
XM100 net2 vo2 net3 gnd sky130_fd_pr__nfet_01v8 L=0.5 W=1 nf=1 ad='int((nf+1)/2) * W/nf * 0.29' as='int((nf+2)/2) * W/nf * 0.29'
+ pd='2*int((nf+1)/2) * (W/nf + 0.29)' ps='2*int((nf+2)/2) * (W/nf + 0.29)' nrd='0.29 / W' nrs='0.29 / W'
+ sa=0 sb=0 sd=0 mult=1 m=1
XM101 net1 clk net2 Vdd sky130_fd_pr__pfet_01v8 L=0.5 W=1 nf=1 ad='int((nf+1)/2) * W/nf * 0.29' as='int((nf+2)/2) * W/nf * 0.29'
+ pd='2*int((nf+1)/2) * (W/nf + 0.29)' ps='2*int((nf+2)/2) * (W/nf + 0.29)' nrd='0.29 / W' nrs='0.29 / W'
+ sa=0 sb=0 sd=0 mult=1 m=1
.ends


* expanding   symbol:  latch_lvs.sym # of pins=8
** sym_path: /home/ganga/CLIP-SAFE/xschem/latch_lvs.sym
** sch_path: /home/ganga/CLIP-SAFE/xschem/latch_lvs.sch
.subckt latch_lvs Vdd gnd Q Q1 Vo1+ Vo1- Vo+ Vo-
*.iopin gnd
*.iopin Vdd
*.opin Q
*.opin Q1
*.ipin Vo+
*.ipin Vo-
*.ipin Vo1+
*.ipin Vo1-
XM74 Q Vo- Vdd Vdd sky130_fd_pr__pfet_01v8 L=0.5 W=1 nf=1 ad='int((nf+1)/2) * W/nf * 0.29' as='int((nf+2)/2) * W/nf * 0.29'
+ pd='2*int((nf+1)/2) * (W/nf + 0.29)' ps='2*int((nf+2)/2) * (W/nf + 0.29)' nrd='0.29 / W' nrs='0.29 / W'
+ sa=0 sb=0 sd=0 mult=1 m=1
XM75 Q1 Vo+ Vdd Vdd sky130_fd_pr__pfet_01v8 L=0.5 W=1 nf=1 ad='int((nf+1)/2) * W/nf * 0.29' as='int((nf+2)/2) * W/nf * 0.29'
+ pd='2*int((nf+1)/2) * (W/nf + 0.29)' ps='2*int((nf+2)/2) * (W/nf + 0.29)' nrd='0.29 / W' nrs='0.29 / W'
+ sa=0 sb=0 sd=0 mult=1 m=1
XM76 net2 Vo1+ Vdd Vdd sky130_fd_pr__pfet_01v8 L=0.5 W=1 nf=1 ad='int((nf+1)/2) * W/nf * 0.29' as='int((nf+2)/2) * W/nf * 0.29'
+ pd='2*int((nf+1)/2) * (W/nf + 0.29)' ps='2*int((nf+2)/2) * (W/nf + 0.29)' nrd='0.29 / W' nrs='0.29 / W'
+ sa=0 sb=0 sd=0 mult=1 m=1
XM77 net1 Vo1- Vdd Vdd sky130_fd_pr__pfet_01v8 L=0.5 W=1 nf=1 ad='int((nf+1)/2) * W/nf * 0.29' as='int((nf+2)/2) * W/nf * 0.29'
+ pd='2*int((nf+1)/2) * (W/nf + 0.29)' ps='2*int((nf+2)/2) * (W/nf + 0.29)' nrd='0.29 / W' nrs='0.29 / W'
+ sa=0 sb=0 sd=0 mult=1 m=1
XM78 Q Q1 net2 Vdd sky130_fd_pr__pfet_01v8 L=0.5 W=1 nf=1 ad='int((nf+1)/2) * W/nf * 0.29' as='int((nf+2)/2) * W/nf * 0.29'
+ pd='2*int((nf+1)/2) * (W/nf + 0.29)' ps='2*int((nf+2)/2) * (W/nf + 0.29)' nrd='0.29 / W' nrs='0.29 / W'
+ sa=0 sb=0 sd=0 mult=1 m=1
XM79 Q1 Q net1 Vdd sky130_fd_pr__pfet_01v8 L=0.5 W=1 nf=1 ad='int((nf+1)/2) * W/nf * 0.29' as='int((nf+2)/2) * W/nf * 0.29'
+ pd='2*int((nf+1)/2) * (W/nf + 0.29)' ps='2*int((nf+2)/2) * (W/nf + 0.29)' nrd='0.29 / W' nrs='0.29 / W'
+ sa=0 sb=0 sd=0 mult=1 m=1